<additional xmlns:xsi="http://www.w3.org/2001/XMLSchema-instance" xsi:noNamespaceSchemaLocation="http://sumo.dlr.de/xsd/additional_file.xsd">
    <e3Detector id="e3_1773581856_165830692#4_ns" freq="90" file="e3output.xml">
        <detEntry lane="388440120#0_0" pos="125.05"/>
        <detEntry lane="388440120#0_1" pos="125.05"/>
        <detEntry lane="176359677#2_0" pos="57.27"/>
        <detEntry lane="402756795#9_0" pos="42.05"/>
        <detEntry lane="402756795#9_1" pos="42.05"/>
        <detEntry lane="176359082#0_0" pos="115.04"/>
        <detEntry lane="-176359082#1_0" pos="18.06"/>
        <detEntry lane="176359072#0_0" pos="64.29"/>
        <detEntry lane="-176359074#0_0" pos="71.56"/>
        <detEntry lane="-176359072#1_0" pos="38.83"/>
        <detEntry lane="165830692#2_0" pos="25.73"/>
        <detEntry lane="165830692#2_1" pos="25.73"/>
        <detEntry lane="176359080#0_0" pos="115.37"/>
        <detEntry lane="176359076#0_0" pos="64.32"/>
        <detEntry lane="-176359080#1_0" pos="35.24"/>
        <detEntry lane="-176359076#1_0" pos="104.54"/>
        <detExit lane="165830692#4_0" pos="-.1"/>
        <detExit lane="165830692#4_1" pos="-.1"/>
    </e3Detector>
    <e3Detector id="e3_1773581856_388440122_ns" freq="90" file="e3output.xml">
        <detEntry lane="388440122_0" pos="0.10"/>
        <detEntry lane="388440122_1" pos="0.10"/>
        <detExit lane="388440122_0" pos="-.1"/>
        <detExit lane="388440122_1" pos="-.1"/>
    </e3Detector>
    <e3Detector id="e3_2633376342_23328869_lo" freq="90" file="e3output.xml">
        <detEntry lane="23328869_0" pos="0.10"/>
        <detEntry lane="23328869_1" pos="0.10"/>
        <detExit lane="23328869_0" pos="-.1"/>
        <detExit lane="23328869_1" pos="-.1"/>
    </e3Detector>
    <e3Detector id="e3_2633376342_388442286#3_lo" freq="90" file="e3output.xml">
        <detEntry lane="388442286#1_0" pos="0.10"/>
        <detEntry lane="388442286#1_1" pos="0.10"/>
        <detEntry lane="388440118_0" pos="0.10"/>
        <detEntry lane="388440118_1" pos="0.10"/>
        <detExit lane="388442286#3_0" pos="-.1"/>
        <detExit lane="388442286#3_1" pos="-.1"/>
    </e3Detector>
    <e3Detector id="e3_2633376337_257884594#0_ns" freq="90" file="e3output.xml">
        <detEntry lane="257884594#0_0" pos="0.10"/>
        <detEntry lane="257884594#0_1" pos="0.10"/>
        <detExit lane="257884594#0_0" pos="-.1"/>
        <detExit lane="257884594#0_1" pos="-.1"/>
    </e3Detector>
    <e3Detector id="e3_2633376337_410384410#3_lo" freq="90" file="e3output.xml">
        <detEntry lane="394341888_0" pos="8.56"/>
        <detEntry lane="257884594#2_0" pos="3.95"/>
        <detEntry lane="257884594#2_1" pos="3.95"/>
        <detEntry lane="-449383842_0" pos="28.32"/>
        <detEntry lane="257884594#7_0" pos="17.07"/>
        <detEntry lane="257884594#7_1" pos="17.07"/>
        <detEntry lane="402756795#0_0" pos="182.50"/>
        <detEntry lane="402756795#0_1" pos="182.50"/>
        <detEntry lane="176359078_0" pos="57.28"/>
        <detEntry lane="449383827#0_0" pos="55.10"/>
        <detEntry lane="176359676#2_0" pos="21.60"/>
        <detEntry lane="-449383827#1_0" pos="69.72"/>
        <detEntry lane="-176359676#3_0" pos="38.15"/>
        <detEntry lane="410384410#2_0" pos="25.86"/>
        <detEntry lane="410384410#2_1" pos="25.86"/>
        <detEntry lane="257888933#0_0" pos="48.29"/>
        <detEntry lane="257888933#0_1" pos="48.29"/>
        <detExit lane="410384410#3_0" pos="-.1"/>
        <detExit lane="410384410#3_1" pos="-.1"/>
    </e3Detector>
    <e3Detector id="e3_2633398097_257888937_lo" freq="90" file="e3output.xml">
        <detEntry lane="257888937_0" pos="0.10"/>
        <detEntry lane="257888937_1" pos="0.10"/>
        <detExit lane="257888937_0" pos="-.1"/>
        <detExit lane="257888937_1" pos="-.1"/>
    </e3Detector>
    <e3Detector id="e3_2633398097_402756795#5_ns" freq="90" file="e3output.xml">
        <detEntry lane="257884594#1_0" pos="0.10"/>
        <detEntry lane="257884594#1_1" pos="0.10"/>
        <detEntry lane="449383827#0_0" pos="48.80"/>
        <detEntry lane="176359676#2_0" pos="15.30"/>
        <detEntry lane="-449383827#1_0" pos="63.42"/>
        <detEntry lane="-176359676#3_0" pos="31.85"/>
        <detEntry lane="449383827#2_0" pos="71.86"/>
        <detEntry lane="410384410#2_0" pos="19.56"/>
        <detEntry lane="410384410#2_1" pos="19.56"/>
        <detEntry lane="257888933#0_0" pos="41.99"/>
        <detEntry lane="257888933#0_1" pos="41.99"/>
        <detEntry lane="402756795#0_0" pos="46.76"/>
        <detEntry lane="402756795#0_1" pos="46.76"/>
        <detEntry lane="176359073#0_0" pos="14.73"/>
        <detEntry lane="-176359078_0" pos="30.17"/>
        <detEntry lane="-176359073#1_0" pos="9.44"/>
        <detExit lane="402756795#5_0" pos="-.1"/>
        <detExit lane="402756795#5_1" pos="-.1"/>
    </e3Detector>
    <e3Detector id="e3_2633398095_257888940_lo" freq="90" file="e3output.xml">
        <detEntry lane="402756795#6_0" pos="0.10"/>
        <detEntry lane="402756795#6_1" pos="0.10"/>
        <detExit lane="257888940_0" pos="-.1"/>
        <detExit lane="257888940_1" pos="-.1"/>
    </e3Detector>
    <e3Detector id="e3_2633398095_388440120#3_lo" freq="90" file="e3output.xml">
        <detEntry lane="410384408#0_0" pos="387.30"/>
        <detEntry lane="388442292#3_0" pos="67.09"/>
        <detEntry lane="176359677#0_0" pos="185.70"/>
        <detEntry lane="23328864#1_0" pos="29.08"/>
        <detEntry lane="176359677#1_0" pos="22.28"/>
        <detEntry lane="-176359677#2_0" pos="38.39"/>
        <detEntry lane="449383827#2_0" pos="76.44"/>
        <detEntry lane="410384410#2_0" pos="24.14"/>
        <detEntry lane="410384410#2_1" pos="24.14"/>
        <detEntry lane="257888933#0_0" pos="46.57"/>
        <detEntry lane="257888933#0_1" pos="46.57"/>
        <detEntry lane="388440120#1_0" pos="32.00"/>
        <detEntry lane="388440120#1_1" pos="32.00"/>
        <detEntry lane="402756795#8_0" pos="6.37"/>
        <detEntry lane="402756795#8_1" pos="6.37"/>
        <detEntry lane="-449383825#0_0" pos="43.59"/>
        <detEntry lane="402756795#6_0" pos="0.10"/>
        <detEntry lane="402756795#6_1" pos="0.10"/>
        <detExit lane="388440120#3_0" pos="-.1"/>
        <detExit lane="388440120#3_1" pos="-.1"/>
    </e3Detector>
    <e3Detector id="e3_252615233_388440117#1_ns" freq="90" file="e3output.xml">
        <detEntry lane="388440117#0_0" pos="0.10"/>
        <detEntry lane="388440117#0_1" pos="0.10"/>
        <detExit lane="388440117#1_0" pos="-.1"/>
        <detExit lane="388440117#1_1" pos="-.1"/>
    </e3Detector>
    <e3Detector id="e3_2633376344_388442286#0_ns" freq="90" file="e3output.xml">
        <detEntry lane="388442286#0_0" pos="0.10"/>
        <detEntry lane="388442286#0_1" pos="0.10"/>
        <detExit lane="388442286#0_0" pos="-.1"/>
        <detExit lane="388442286#0_1" pos="-.1"/>
    </e3Detector>
    <e3Detector id="e3_252616152_402756795#11_ns" freq="90" file="e3output.xml">
        <detEntry lane="388440120#0_0" pos="0.10"/>
        <detEntry lane="388440120#0_1" pos="0.10"/>
        <detEntry lane="410384408#1_0" pos="16.45"/>
        <detEntry lane="23328864#0_0" pos="33.13"/>
        <detEntry lane="-410384408#2_0" pos="35.21"/>
        <detEntry lane="388442292#3_0" pos="98.66"/>
        <detEntry lane="176359677#0_0" pos="217.27"/>
        <detEntry lane="-176359677#1_0" pos="11.22"/>
        <detEntry lane="402756795#9_0" pos="28.22"/>
        <detEntry lane="402756795#9_1" pos="28.22"/>
        <detEntry lane="449383825#0_0" pos="38.44"/>
        <detEntry lane="-449383825#1_0" pos="80.38"/>
        <detEntry lane="-176359082#0_0" pos="100.30"/>
        <detEntry lane="176359082#2_0" pos="22.65"/>
        <detEntry lane="176359072#1_0" pos="7.10"/>
        <detEntry lane="165830692#2_0" pos="41.06"/>
        <detEntry lane="165830692#2_1" pos="41.06"/>
        <detEntry lane="176359080#0_0" pos="130.70"/>
        <detEntry lane="176359076#0_0" pos="79.65"/>
        <detEntry lane="-176359080#1_0" pos="50.57"/>
        <detEntry lane="-176359076#1_0" pos="119.87"/>
        <detExit lane="402756795#11_0" pos="-.1"/>
        <detExit lane="402756795#11_1" pos="-.1"/>
    </e3Detector>
</additional>
