<?xml version="1.0" encoding="UTF-8"?>

<!-- generated on 11/04/19 07:45:31 by SUMO duarouter Version 0.31.0
<?xml version="1.0" encoding="UTF-8"?>

<configuration xmlns:xsi="http://www.w3.org/2001/XMLSchema-instance" xsi:noNamespaceSchemaLocation="http://sumo.dlr.de/xsd/duarouterConfiguration.xsd">

    <input>
        <net-file value="MAS.net.xml"/>
        <route-files value="trips.trips.xml"/>
    </input>

    <output>
        <output-file value="MAS.rou.xml"/>
    </output>

    <processing>
        <ignore-errors value="true"/>
    </processing>

    <time>
        <begin value="0"/>
        <end value="500.0"/>
    </time>

    <report>
        <no-warnings value="true"/>
        <no-step-log value="true"/>
    </report>

</configuration>
-->

<routes xmlns:xsi="http://www.w3.org/2001/XMLSchema-instance" xsi:noNamespaceSchemaLocation="http://sumo.dlr.de/xsd/routes_file.xsd">
    <vehicle id="0" depart="0.00">
        <route edges="220677918#4 220677918#5 220677918#6 477174195 131877038#0 131877038#1 29064519 562214243 356395710 477600610 356395712 130679130#0 130679130#1 130679130#2 130679130#3 130679130#4 130679130#5 130679130#6 130679130#7 130679130#8 130679130#9 130679130#10 130679130#11 29064586 254852232 327073013 327072996 129439699#0 129439699#1 129439699#2 129439699#3 129439699#4 129439699#5 51769332#0 51769332#1 51769332#2 51769332#3 51769332#4 327073006#0 327073006#1 327073006#2 473690616#0 473690616#1 473690616#2 447936236#1 447936236#2 368780516 447936233 288127016 29211086 288127027 29211237 29211240 398444968#0 398444968#1 288127006 495087001"/>
    </vehicle>
    <vehicle id="1" depart="1.00">
        <route edges="82210245#1 563969317#0 563969317#1 -223077118#1 -223077118#0 -132631814#1 -132631814#0 29064314 356396706 356396705 356396234#2 356396234#3 356396246 356396249#0 356396249#1 356396252#0 356396252#1 356396252#2 356396238 356396254#0 356396254#1 356396254#2 356396254#3 28006340 220677918#0 220677918#1 399321362#0 399321362#1 326637319 99408068#0 99408068#1 99408068#2 99408068#3 219421422 89529750 504115630 473813759#0 473813759#1 473813759#2 473813759#3 473813759#4 89383725#0 89383725#1 326637317 477600656 89383726#0 89383726#1 288071280 89383720#0 89383720#1 89383720#2 281431087 -281431087"/>
    </vehicle>
    <vehicle id="2" depart="2.00">
        <route edges="222715850#4 130783834 327172217#0 327172217#1 327172217#2 327172217#3 327172217#4 327172217#5 287207127#0 287207127#1 287207127#2 287207127#3 287207127#4 287207127#5 287207127#6 287207127#7 287207127#8 287207127#9 287207127#10 222715853 222715854 356395718#0 356395718#1 356395718#2 356395718#3 356395718#4 356395718#5 356395718#6 356395718#7 356395718#8 356395718#9 356395718#10 356395718#11 27082316#0 27082316#1 27082316#2 27082316#3 27082316#4 27082316#5 27082316#6 356395761#0 356395761#1 356395760 189615578 473480295 27165294 471664562#0 471664562#1 222715983#0 222715983#1 222715983#2 222715983#3 222715983#4 222715983#5 222715983#6 222715983#7 222715983#8 131876924#0 131876924#1 131876924#2 131876924#3 131876924#4 356396012 161220160 161220162 131877038#0 131877038#1 29064519 562214243 356395710 477600610 356395712 130679130#0 130679130#1 130679130#2 130679130#3 130679130#4 130679130#5 130679130#6 130679130#7 130679130#8 130679130#9 130679130#10 130679130#11 29064586 254852232 327073013 327072996 129439699#0 129439699#1 129439699#2 129439699#3 -210161238#12 -210161238#11 -210161238#10 -210161238#9 -210161238#8 -210161238#7 -210161238#6 -210161238#5 -210161238#4 -210161238#3 -210161238#2 -210161238#1 -210161238#0 -29064990#6 302660760#0 302660760#1 302660760#2 -330505381#3 29064965#0 29064965#1 -29064942#3 -29064942#2 -29064963#1 -29064980"/>
    </vehicle>
    <vehicle id="3" depart="3.00">
        <route edges="89529750 504115630 473813759#0 473813759#1 473813759#2 473813759#3 89529784 89635219#1 89529758 495086997 89529768#0 89529768#1 98396197 26986335 473340425 473340426 272678641 350274434 272678642#0 272678642#1 504114514 399321359 27184258 356395871 356395872 154945537#1 132629036#0 132629036#1 356396247#0 356396247#1 477600650#0 477600650#1 132629042#0 132629042#1 132629042#2 132629042#3 220130757#0 220130757#1 220130757#2 356396243 327334608#0 327334608#1 327334608#2 327334608#3 327334608#4 327334608#5 327334608#6 132630781#0 132630781#1 132630781#2 132632797#0 132632797#1 132632797#2 132632797#3 132632797#4 132632797#5 132630782#0 132630782#1 132630782#2 132630782#3 132632798#0 132632798#1 132632798#2 132632798#3 132632798#4 132635666#0 132635666#1 132635666#2 29046622#0 29046622#1 29046622#2 29046622#3 29046622#4 29046621#3 29046631#1 29046631#2 29046631#3 29046631#4 29046631#5 -223077102#1 29046708 356396063#2 229439108 -451653061#3 451653061#3"/>
    </vehicle>
    <vehicle id="5" depart="5.00">
        <route edges="29209338 27100725#0 27100725#1 207947222 -207947224#1 -207947224#0 -207947223 -479026619 -356396696 222715979#0 222715979#1 222715979#2 222715979#3 222715979#4 222715979#5 222715979#6 127054411#0 127054411#1 356395840#0 356395840#1 356395840#2 356395840#3 356395840#4 356395840#5 356395840#6 356395840#7 356395840#8 356395840#9 222715980 128920046 541933565 356395764#0 356395764#1 356395762 189615577#0 189615577#1 356395765#0 356395765#1 356395765#2 356395765#3 27082340#0 27082340#1 288222422#0 288222422#1 288222422#2 288222422#3 288222422#4 288222425 356395726 28191981 222715852#0 222715852#1 222715852#2 222715852#3 222715852#4 222715852#5 222715852#6 222715852#7 356395839 222715855#0 222715855#1 222715855#2 222715855#3 222715855#4 222715855#5 81993968 81992140 356395723 232952927#0 232952927#1 451652882#0 451652882#1 451652882#2 451652882#3 451652879#0 451652879#1 451652879#2 451652879#3 232952928#0 232952928#1 232952928#2 232952928#3 260989616#0 260989616#1 132365351#0 132365351#1 132365351#2 132365351#3 132365351#4 132365351#5 132365351#6 132365351#7 356395733#0 356395733#1 132365043#0 132365043#1 132365043#2 132365043#3"/>
    </vehicle>
    <vehicle id="6" depart="6.00">
        <route edges="-425149134#0 219403638#1 219403638#2 393647643#0 393647643#1 393647643#2 393647643#3 393647643#4 393647643#5 222715979#4 222715979#5 222715979#6 127054411#0 127054411#1 356395840#0 356395840#1 356395840#2 356395840#3 356395840#4 356395840#5 356395840#6 356395840#7 356395840#8 356395840#9 222715980 128920046 541933565 356395764#0 356395764#1 356395762 189615577#0 189615577#1 356395765#0 356395765#1 356395765#2 356395765#3 27082340#0 27082340#1 288222422#0 288222422#1 288222422#2 288222422#3 288222422#4 288222425 356395726 28191981 222715852#0 222715852#1 222715852#2 222715852#3 222715852#4 222715852#5 222715852#6 222715852#7 356395839 222715855#0 222715855#1 222715855#2 222715855#3 222715855#4 222715855#5 81993968 81992140 356395723 232952927#0 232952927#1 451652882#0 451652882#1 451652882#2 451652882#3 451652879#0 451652879#1 451652879#2 451652879#3 232952928#0 232952928#1 232952928#2 232952928#3 82210249#0 82210249#1 82210249#2 82210249#3 82210249#4 527190641#0 527190641#1 527190642#0 527190642#1 527190642#2 527190642#3 527190642#4 80510251#0 80510251#1 80510251#2 29046333 235503024#0 235503024#1 29046412"/>
    </vehicle>
    <vehicle id="7" depart="7.00">
        <route edges="562353045#2 562353045#3 562353045#4 51769314 51769318 217019026 447936235 368774952 447936234#0 447936234#1 27104056#0 461980451 461980454 461980452 51691428#0 51691428#1 51691463 326126544#0 207947231 207947229 207947242 562103041#3 29209338 27100725#0 27100725#1 207947222 -207947224#1 -207947224#0 -207947223 -479026619 -356396696 222715979#0 222715979#1 222715979#2 222715979#3 222715979#4 222715979#5 222715979#6 127054411#0 127054411#1 356395840#0 356395840#1 356395840#2 356395840#3 356395840#4 356395840#5 356395840#6 356395840#7 356395840#8 356395840#9 222715980 128920046 541933565 356395764#0 356395764#1 356395762 189615577#0 189615577#1 356395765#0 356395765#1 356395765#2 356395765#3 27082340#0 27082340#1 288222422#0 288222422#1 288222422#2 288222422#3 288222422#4 288222425 356395726 28191981 222715852#0 222715852#1 222715852#2 222715852#3 222715852#4 222715852#5 222715852#6 222715852#7 356395839 222715855#0 222715855#1 222715855#2 222715855#3 222715855#4 222715855#5 81993968 81992140 356395723 232952927#0 232952927#1 451652882#0 451652882#1 451652882#2 451652882#3 451652879#0 451652879#1 451652879#2 451652879#3 232952928#0 232952928#1 232952928#2 232952928#3 260989616#0 260989616#1 132365351#0 132365351#1 132365351#2 132365351#3 132365351#4 132365351#5 132365351#6 132365351#7 356395733#0 356395733#1 -326309704#1 326309704#1 130716245#0 130716245#1 100706551 29046355#0 100706540#0 -100706530"/>
    </vehicle>
    <vehicle id="9" depart="9.00">
        <route edges="414501726#1 414501725#3 -89383720#8 -89383720#7 -89383720#6 -89383720#5 -89383720#4 -89383720#3 -89383720#2 -89383720#1 -89383720#0 89383734 89383726#3 89383726#4 89383726#5 288071277#0 288071277#1 288071277#2 288071277#3 89635219#0 89635219#1 89529758 495086997 89529768#0 89529768#1 98396197 26986335 473340425 473340426 473340427#0 473340427#1 473340427#2 562214243 356395710 477600610 356395712 130679130#0 130679130#1 130679130#2 130679130#3 130679130#4 130679130#5 130679130#6 130679130#7 130679130#8 130679130#9 130679130#10 130679130#11 29064586 254852232 327072975 261802145 327072973#0 327072973#1 327072973#2 327072973#3 327072973#4 327072973#5 327072973#6 327072973#7 327072973#8 327072973#9 327072973#10 327072973#11 327072973#12 327072973#13 327072973#14 327072973#15 454586872 327072970#0 327072970#1 327072970#2 327072970#3 451652862#0 -29064408#7 -29064408#6 -29064408#5 -29064820#0"/>
    </vehicle>
    <vehicle id="10" depart="10.00">
        <route edges="-29046037#3 -29046037#2 -29046037#1 -29046037#0 287207127#6 287207127#7 287207127#8 287207127#9 287207127#10 222715853 222715854 356395718#0 356395718#1 356395718#2 356395718#3 356395718#4 356395718#5 356395718#6 356395718#7 356395718#8 356395718#9 356395718#10 356395718#11 27082316#0 27082316#1 27082316#2 27082316#3 27082316#4 27082316#5 27082316#6 356395761#0 356395761#1 356395760 189615578 473480295 27165294 471664562#0 471664562#1 222715983#0 222715983#1 222715983#2 222715983#3 222715983#4 222715983#5 222715983#6 222715983#7 222715983#8 222715984#0 222715984#1 356395841#0 356395841#1 356395841#2 356395841#3 448055179#0 448055179#1 479026619 207947223 27090679 473347660 207947189#1 27103886#0 27103886#1 207947240 477278413 27100734 217019027#0 -399157322 -207947242 -207947229 -207947231 326126544#1 326126544#2 326126544#3 -51756748#2 -51756748#1 -51756748#0 51756750 -51769319#2 -51769319#1 -51769319#0 51769317 217019022 -562353045#4 -562353045#3 -562353045#2 -562353045#1 -562353045#0 -562353046#5"/>
    </vehicle>
    <vehicle id="11" depart="11.00">
        <route edges="-29046334 283272002#1 283272002#2 283272002#3 451652880#0 451652880#1 451652880#2 451652880#3 451652877 451652881#0 451652881#1 451652881#2 451652881#3 451652881#4 132365352 562246708#0 562246708#1 562246708#2 356395731#0 356395731#1 356395727 356395719#0 356395719#1 356395719#2 130714221 222715850#4 130783834 327172217#0 327172217#1 327172217#2 327172217#3 327172217#4 327172217#5 287207127#0 287207127#1 287207127#2 287207127#3 287207127#4 287207127#5 287207127#6 287207127#7 287207127#8 287207127#9 287207127#10 222715853 222715854 356395718#0 356395718#1 356395718#2 356395718#3 356395718#4 356395718#5 356395718#6 356395718#7 356395718#8 356395718#9 356395718#10 356395718#11 27082316#0 27082316#1 27082316#2 27082316#3 27082316#4 27082316#5 27082316#6 356395761#0 356395761#1 356395760 189615578 473480295 27165294 471664562#0 471664562#1 222715983#0 222715983#1 222715983#2 222715983#3 222715983#4 222715983#5 222715983#6 222715983#7 222715983#8 131876924#0 131876924#1 131876924#2 131876924#3 131876924#4 356396012 161220160 161220162 131877038#0 131877038#1 29064519 562214243 356395710 477600610 356395712 130679130#0 130679130#1 130679130#2 130679130#3 130679130#4 130679130#5 130679130#6 130679130#7 130679130#8 130679130#9 130679130#10 130679130#11 29064586 254852232 327072975 261802145 327072973#0 327072973#1 327072973#2 327072973#3 327072973#4 327072973#5 327072973#6 327072973#7 327072973#8 327072973#9 327072973#10 327072973#11 327072973#12 327072973#13 327072973#14 327072973#15 454586872 327072970#0 327072970#1 327072970#2 327072970#3 451652862#0 451652862#1 451652862#2 451652862#3 29065214#0 29065213#4 29065213#5 29065213#6 29065213#7 29065213#8 29065213#9 29065213#10 29065213#11 29065213#12 29065213#13 29065213#14 29065213#15 -29065180#4 -29065180#3 -29065180#2 -29065180#1 -29065180#0 30448003 451653054 439007919#0 384167942#2 562102990 562102991#0 562102991#1 562102991#2 562102991#3 384167943#0 384167943#1 384167943#2 384167943#3 272678646#0 272678646#1 272678646#2 288127005#0 288127005#1 288127005#2 288127005#3 421686989 51769243#0"/>
    </vehicle>
    <vehicle id="12" depart="12.00">
        <route edges="356395763#1 127054413#0 127054413#1 127054413#2 451652894#0 -219442233#1 220188308#2 220188308#3 220188308#4 220188308#5 132622924#0 220188320#6 126798184 126798191#0 126798191#1 126798191#2 126798191#3 126798191#4 126798191#5 126798191#6 -98401062#0 -130997992 130997992"/>
    </vehicle>
    <vehicle id="13" depart="13.00">
        <route edges="132568467#4 132568467#5 132568467#6 132568467#7 454586883#0 454586883#1 454586883#2 131876924#0 131876924#1 131876924#2 131876924#3 131876924#4 356396012 161220160 161220162 131877038#0 131877038#1 29064519 562214243 356395710 477600610 356395712 130679130#0 130679130#1 130679130#2 130679130#3 130679130#4 130679130#5 130679130#6 130679130#7 130679130#8 130679130#9 130679130#10 130679130#11 29064586 254852232 327072975 261802145 327072973#0 327072973#1 327072973#2 327072973#3 327072973#4 327072973#5 327072973#6 327072973#7 327072973#8 327072973#9 327072973#10 327072973#11 327072973#12 327072973#13 327072973#14 327072973#15 454586872 327072970#0 327072970#1 327072970#2 327072970#3 451652862#0 -29064408#7 30513727#0 30513727#1 30513727#2 30513727#3 29064742#0 29064742#1"/>
    </vehicle>
    <vehicle id="14" depart="14.00">
        <route edges="288127024#1 29211197 60444382 60444381 288127019 288127020 288127017#0 288127017#1 288127022#0 288127022#1 327671765 541103323#0 541103323#1 541103323#2 -29083754 29083755 -562494656#0 -219603934 541103325#3 293657251#0 293657238#1 293657238#2 293657235#7 293657235#8 293657235#0 293657235#1 288071291#0 293657246#2 -293657250#1 -293657250#0"/>
    </vehicle>
    <vehicle id="15" depart="15.00">
        <route edges="281430719#0 281430664#2 281430664#3 541100673#0 562494621#5 -51813963#5 -51813963#4 -51813963#3 -51813963#2 -51813963#1 -51813963#0 -224697592 89529745 473477215 473477223 473813759#3 89529784 89635219#1 89529758 495086997 89529768#0 89529768#1 98396197 26986335 473340425 473340426 272678641 350274434 272678642#0 272678642#1 272678643 399321362#1 326637319 32693539 51769333 473340431#0 473340431#1 473340431#2 473340431#3 130862337#0 -288520055#9 -288520055#8"/>
    </vehicle>
    <vehicle id="16" depart="16.00">
        <route edges="189615593 89529772 89529787 -224697592 89529745 473477215 473477223 473813759#3 89529784 89635219#1 89529758 495086997 89529768#0 89529768#1 98396197 26986335 473340425 473340426 272678641 350274434 272678642#0 272678642#1 504114514 399321359 27184258 356395871 356395872 154945537#1 132629036#0 132629036#1 356396247#0 356396247#1 477600650#0 477600650#1 132629042#0 132629042#1 132629042#2 132629042#3 220130757#0 220130757#1 220130757#2 356396243 327334608#0 327334608#1 327334608#2 327334608#3 327334608#4 327334608#5 327334608#6 132630781#0 132630781#1 132630781#2 132632802#0 132632802#1 -29023740 -356395860#0 29023749 563969293 223077099#0 29023835#0 29023835#1 29023816#1"/>
    </vehicle>
    <vehicle id="17" depart="17.00">
        <route edges="27184354#2 207947225#0 207947225#1 477278411#0 477278411#1 477278411#2 477278411#3 477278411#4 207947193 207947192 130676316#0 130676316#1 130774951 154945536 154945537#0 154945537#1 132629036#0 132629036#1 356396247#0 356396247#1 477600650#0 477600650#1 132629042#0 132629042#1 132629042#2 132629042#3 220130757#0 220130757#1 220130757#2 356396243 327334608#0 327334608#1 327334608#2 327334608#3 327334608#4 327334608#5 327334608#6 132630781#0 132630781#1 132630781#2 132632802#0 132632802#1 -29023740 -356395860#0 29023749 563969293 223077099#0 29023835#0 29023835#1 -29023835#1"/>
    </vehicle>
    <vehicle id="18" depart="18.00">
        <route edges="-477600636#1 219442224#0 219442224#1 219442224#2 219442224#3 563064809#0 563064809#1 563064809#2 563064809#3 563064809#4 563064809#5 356395840#8 220188315#0 220188315#1 220188316#0 -330362890 27184319 28006300 654118930#1 99017706#0 99017706#1 132629036#0 132629036#1 356396247#0 356396247#1 477600650#0 477600650#1 132629042#0 132629042#1 132629042#2 132629042#3 220130757#0 220130757#1 220130757#2 356396243 327334608#0 327334608#1 327334608#2 327334608#3 327334608#4 327334608#5 327334608#6 132630781#0 132630781#1 132630781#2 132632797#0 132632797#1 132632797#2 132632797#3 132632797#4 132632797#5 132630782#0 132630782#1 132630782#2 132630782#3 132632798#0 132632798#1 132632798#2 132632798#3 132632798#4 132635666#0 132635666#1 132635666#2 29046622#0"/>
    </vehicle>
    <vehicle id="20" depart="20.00">
        <route edges="-562353046#3 562353046#3 562353046#4 562353046#5 562353045#0 562353045#1 562353045#2 562353045#3 562353045#4 51769314 51769318 217019026 447936235 368774952 447936234#0 447936234#1 27104056#0 461980451 461980454 461980452 51691428#0 51691428#1 51691463 326126544#0 207947231 207947229 207947242 562103041#3 29209338 27100725#0 27100725#1 207947222 -207947224#1 -207947224#0 -207947223 -479026619 -356396696 222715979#0 222715979#1 222715979#2 222715979#3 222715979#4 222715979#5 27184648#6 27184648#7"/>
    </vehicle>
    <vehicle id="22" depart="22.00">
        <route edges="29023503#1 29023696#0 29023696#1 29023696#2 29023696#3 563969361 -223077094 -562246747 -29023673#1 -29023673#0 -223077124#1 29023778 -563969345#2 -563969345#1 -563969345#0 -29023810 132632797#2 132632797#3 132632797#4 132632797#5 132630782#0 132630782#1 132630782#2 132630782#3 132632798#0 132632798#1 -29046523 29046512 29046479 132635667 356396614#0 356396614#1 356396612 356396616 327073002 493730826 500493266 200444937#0 -426450115 426450097#1"/>
    </vehicle>
    <vehicle id="23" depart="23.00">
        <route edges="29209861#0 29209861#1 447936236#0 447936236#1 447936236#2 368780516 447936233 288127016 29211086 288127027 29211237 29211240 398444968#0 398444968#1 288127006 495087001 98396197 26986335 473340425 473340426 473340427#0 473340427#1 473340427#2 562214243 356395710 477600610 356395712 130679130#0 130679130#1 130679130#2 130679130#3 130679130#4 130679130#5 130679130#6 130679130#7 130679130#8 130679130#9 130679130#10 130679130#11 29064586 254852232 327072975 261802145 327072973#0 327072973#1 327072973#2 327072973#3 327072973#4 327072973#5 327072973#6 327072973#7 327072973#8 327072973#9 327072973#10 327072973#11 327072973#12 327072973#13 327072973#14 327072973#15 288071288#0 288071288#1 29065095 220188310 -29065084 529252687#0 529252687#1 529252687#2 529252687#3 526521041"/>
    </vehicle>
    <vehicle id="24" depart="24.00">
        <route edges="563064809#4 563064809#5 563064809#6 222715983#2 222715983#3 222715983#4 222715983#5 222715983#6 222715983#7 222715983#8 131876924#0 131876924#1 131876924#2 131876924#3 131876924#4 356396012 161220160 161220162 131877038#0 131877038#1 29064519 562214243 356395710 477600610 356395712 130679130#0 129440227 562214235#10 126530350#0 29064501#0 -29064480#1 -219303549#0 -29064499#2"/>
    </vehicle>
    <vehicle id="25" depart="25.00">
        <route edges="-29046631#3 -29046631#2 -29046631#1 -29046631#0 -228758734 -29046622#3 -29046622#2 -451653464#0 -451653477 -393897674 132635667 356396614#0 356396614#1 356396612 356396616 356396253#4 132635664#0 132635664#1 132635664#2 132632800 356396234#0 356396234#1 356396234#2 356396234#3 356396246 356396249#0 356396249#1 356396252#0 356396252#1 356396252#2 356396238 356396254#0 356396254#1 356396254#2 356396254#3 28006340 220677918#0 220677918#1 220677918#2 220677918#3 220677918#4 220677918#5 220677918#6 477174195 131877037 220677919#0 220677919#1 48153402 130676314 207947227 207947191 207947194 479028083 479028082 207947238 207947243#0 207947243#1 207947240 477278413 27100734 217019027#0 -399157322 -207947242 -207947229 -207947231 326126544#1 326126544#2 326126544#3 -51756748#2 -51756748#1 -51756748#0 51756750 -51769319#2 -51769319#1 -51769319#0 51769317 217019022 -562353045#4 -562353045#3 -562353045#2 -562353045#1"/>
    </vehicle>
    <vehicle id="26" depart="26.00">
        <route edges="563064823#1 563064823#2 563064823#3 563064823#4 -500493463#9 -500493463#8 -500493463#7 -500493463#6 -500493463#5 27184420#0 27184420#1 27184420#2 27184420#3 219299291#0"/>
    </vehicle>
    <vehicle id="27" depart="27.00">
        <route edges="-29064976#3 29064976#3 29064976#4 29064976#5 -29064985#1 -29064985#0 29064985#0"/>
    </vehicle>
    <vehicle id="28" depart="28.00">
        <route edges="130774956#0 130774956#1 477174171#0 477174171#1 477174171#2 477174171#3 356395841#0 27184648#5 222715979#6 127054411#0 127054411#1 454586883#0 454586883#1 454586883#2 131876924#0 131876924#1 131876924#2 131876924#3 131876924#4 356396012 161220160 161220162 131877038#0 131877038#1 29064519 562214243 356395710 477600610 356395712 130679130#0 130679130#1 130679130#2 130679130#3 130679130#4 130679130#5 130679130#6 130679130#7 130679130#8 130679130#9 130679130#10 130679130#11 29064586 254852232 327073013 327072996 129439699#0 129439699#1 129439699#2 129439699#3 -210161238#12 -210161238#11 -210161238#10 -210161238#9 -210161238#8 -210161238#7 -210161238#6 -210161238#5 -210161238#4 -210161238#3 -210161238#2 -210161238#1 -210161238#0 29064990#7 29064990#8 29064990#9 -302660757#3 -302660757#2 302660759"/>
    </vehicle>
    <vehicle id="29" depart="29.00">
        <route edges="293657237 -293657240#1 293657236 293657235#5 293657235#6 293657235#7 293657235#8 293657235#0 293657235#1 288071291#0 288071291#1 288071291#2 288071291#3 89383726#5 288071277#0 288071277#1 288071277#2 288071277#3 89635219#0 89635219#1 89529758 495086997 89529768#0 89529768#1 98396197 26986335 473340425 473340426 473340427#0 473340427#1 473340427#2 562214243 356395710 477600610 356395712 130679130#0 130679130#1 130679130#2 130679130#3 130679130#4 130679130#5 130679130#6 130679130#7 130679130#8 130679130#9 130679130#10 130679130#11 29064586 254852232 327072975 261802145 327072973#0 327072973#1 327072973#2 327072973#3 327072973#4 327072973#5 327072973#6 327072973#7 327072973#8 327072973#9 327072973#10 327072973#11 327072973#12 327072973#13 327072973#14 327072973#15 454586872 327072970#0 327072970#1 327072970#2 327072970#3 451652862#0 451652862#1 451652862#2 451652862#3 29065214#0 29065213#4 29065213#5 29065213#6 29065213#7 29065213#8 29065213#9 29065213#10 29065213#11 29065213#12 29065213#13 29065213#14 29065213#15 -29065180#4 -29065180#3 -29065180#2 -29065180#1 -29065180#0 30448003 451652917#0 -30447864#2"/>
    </vehicle>
    <vehicle id="30" depart="30.00">
        <route edges="29046400 29046336 283272002#0 283272002#1 283272002#2 283272002#3 451652880#0 451652880#1 451652880#2 451652880#3 451652877 451652881#0 451652881#1 451652881#2 451652881#3 451652881#4 132365352 562246708#0 562246708#1 562246708#2 356395731#0 356395731#1 356395727 356395719#0 356395719#1 356395719#2 130714221 222715850#4 130783834 327172217#0 327172217#1 327172217#2 327172217#3 327172217#4 327172217#5 287207127#0 287207127#1 287207127#2 287207127#3 287207127#4 287207127#5 287207127#6 287207127#7 287207127#8 287207127#9 287207127#10 222715853 222715854 356395718#0 356395718#1 356395718#2 356395718#3 356395718#4 356395718#5 356395718#6 356395718#7 356395718#8 356395718#9 356395718#10 356395718#11 27082316#0 27082316#1 27082316#2 27082316#3 27082316#4 27082316#5 27082316#6 356395761#0 356395761#1 75457775 654118930#0 654118930#1 99017706#0 99017706#1 28006716 356396534 356396535 356396536 399321362#0 399321362#1 326637319 99408068#0 99408068#1 99408068#2 99408068#3 219421422 288127007#0 288127007#1 495086996#0 495086996#1 473477208 288127008 288127009 27090398 205406269#0 205406269#1 60444755 408474327#0 408474327#1 288127017#1 288127022#0 399818082 288127015#1 288127015#2 27090408#0 51771003#0 51771003#1 51771003#2 51771003#3 421287644#0 -421287644#0"/>
    </vehicle>
    <vehicle id="31" depart="31.00">
        <route edges="414501728 414501726#1 414501725#3 -89383720#8 -89383720#7 -89383720#6 -89383720#5 -89383720#4 -89383720#3 -89383720#2 -89383720#1 -89383720#0 89383734 89383726#3 89383726#4 89383726#5 288071277#0 288071277#1 288071277#2 288071277#3 89635219#0 89635219#1 89529758 495086997 89529768#0 89529768#1 98396197 26986335 473340425 473340426 473340427#0 473340427#1 473340427#2 473340427#3 454586882#0 454586882#1 292231524 130774956#0 130774956#1 477174171#0 477174171#1 477174171#2 477174171#3 454586881 130775458#0 130775458#1 130775458#2 130775458#3 130775458#4 130775458#5 130775458#6 130775458#7 278951629 132568466#0 132568466#1 219299315 563064824 425149134#0 425149134#1 -425149134#1"/>
    </vehicle>
    <vehicle id="32" depart="32.00">
        <route edges="-30446980 219401172#1 219401165#2 219401165#3 219401165#4 219401165#5 219401165#6 219401165#7 -451652860 -327072984#1 -327072984#0 -451652862#3 -451652862#2 -451652862#1 -451652862#0 -327072970#3 -327072970#2 -327072970#1 -327072970#0 -454586872 -327072973#15 -327072973#14 -327072973#13 -327072973#12 -327072973#11 -327072973#10 -327072973#9 -327072973#8 -327072973#7 -327072973#6 -327072973#5 -327072973#4 -327072973#3 -327072973#2 -327072973#1 -327072973#0 327072979 129440574 327073009 327072999 129439695#0 129439695#1 129439695#2 128413953 477600659#0 477600659#1 473340430 98396195 98396209 504114514 399321359 27184258 356395871 356395872 356395870 27184284 244757087 326637320#0 28006300 330362896 510034596 27082316#6 356395761#0 356395761#1"/>
    </vehicle>
    <vehicle id="33" depart="33.00">
        <route edges="51769332#0 51769332#1 51769332#2 51769332#3 51769332#4 27100335 327073007#1 327073007#2 327073003#0 327073003#1 327073003#2 562103041#0 562103041#1 562103041#2 -207947242 -207947229 -207947231 326126544#1 326126544#2 326126544#3 -51756748#2 -51756748#1 -51756748#0 51756750 -51769319#2 -51769319#1 -51769319#0 51769317 217019022 -562353045#4 -287311717#1 -287311717#0 -273516917#2"/>
    </vehicle>
    <vehicle id="34" depart="34.00">
        <route edges="28191218#0 28191218#1 -28191148#1 -28191148#0 -28191669 28191238#0 28191238#1 28191238#2 28191238#3 223348804 563969309 288071286 -563969319#0 -240311246 28007928 288222424#0 288222424#1 356395718#3 356395718#4 356395718#5 356395718#6 356395718#7 356395718#8 356395718#9 356395718#10 356395718#11 27082316#0 27082316#1 27082316#2 27082316#3 27082316#4 27082316#5 27082316#6 356395761#0 356395761#1 75457775 654118930#0 654118930#1 99017706#0 99017706#1 28006716 356396534 356396535 356396536 399321362#0 220188332#0 220188332#1 356396453#0 356396453#1"/>
    </vehicle>
    <vehicle id="35" depart="35.00">
        <route edges="288127038 51770249 288127019 288127020 288127017#0 288127017#1 288127022#0 399818082 288127015#1 288127015#2 288127021#0 288127021#1 29210971 29210975#0 29210975#1 29474897 447936239 288127014 447936238 447936237 447936235 368774952 447936234#0 447936234#1 27104056#0 461980451 461980454 461980452 51691428#0 51691428#1 51691463 326126544#0 207947231 207947229 207947242 562103041#3 29209338 27100725#0 27100725#1 207947222 -207947224#1 -207947224#0 -207947223 -479026619 -356396696 222715979#0 222715979#1 222715979#2 222715979#3 222715979#4 222715979#5 222715979#6 127054411#0 127054411#1 356395840#0 356395840#1 356395840#2 356395840#3 356395840#4 356395840#5 356395840#6 356395840#7 356395840#8 356395840#9 222715980 128920046 541933565 356395764#0 356395764#1 356395762 189615577#0 189615577#1 356395765#0 356395765#1 356395765#2 356395765#3 27082340#0 27082340#1 288222422#0 288222422#1 288222422#2 -451653367 -356396487 -451653362 -222715860 222715866#1"/>
    </vehicle>
    <vehicle id="36" depart="36.00">
        <route edges="-29046053#1 356395719#6 356395719#7 356395728 356395717#0 356395717#1 356395717#2 356395717#3 356395717#4 356395717#5 356395717#6 356395717#7 233553782 222715845 132366044 356395718#0 356395718#1 356395718#2 356395718#3 356395718#4 356395718#5 356395718#6 356395718#7 356395718#8 356395718#9 356395718#10 356395718#11 27082316#0 27082316#1 27082316#2 27082316#3 27082316#4 27082316#5 27082316#6 356395761#0 356395761#1 75457775 654118930#0 654118930#1 99017706#0 99017706#1 28006716 356396534 356396535 356396536 399321362#0 399321362#1 326637319 99408068#0 99408068#1 99408068#2 99408068#3 219421422 288127007#0 288127007#1 495086996#0 495086996#1 100394653#0 100394653#1 281430666#0 281430666#1 281430666#2 281430666#3 51813965#1 541103325#0 541103325#1 29083801#0"/>
    </vehicle>
    <vehicle id="37" depart="37.00">
        <route edges="-28006270 477600650#1 132629042#0 132629042#1 132629042#2 132629042#3 220130757#0 220130757#1 220130757#2 356396243 327334608#0 327334608#1 327334608#2 327334608#3 327334608#4 327334608#5 327334608#6 132630781#0 132630781#1 132630781#2 132632802#0 132632802#1 -29023740 -356395860#0 29023749 563969293 223077099#0 223077099#1 29046169#1 29046179#1 563969328 -29046183 -223077118#0 -132631814#1"/>
    </vehicle>
    <vehicle id="38" depart="38.00">