<?xml version="1.0"?>
<!-- generated on 2019-11-04 07:45:27.000703 by $Id: randomTrips.py 25741 2017-08-30 11:58:01Z behrisch $
  options: -n MAS.net.xml -r MAS.rou.xml -e 500 -l
-->
<routes xmlns:xsi="http://www.w3.org/2001/XMLSchema-instance" xsi:noNamespaceSchemaLocation="http://sumo.dlr.de/xsd/routes_file.xsd">
    <trip id="0" depart="0.00" from="220677918#4" to="495087001"/>
    <trip id="1" depart="1.00" from="82210245#1" to="-281431087"/>
    <trip id="2" depart="2.00" from="222715850#4" to="-29064980"/>
    <trip id="3" depart="3.00" from="89529750" to="451653061#3"/>
    <trip id="4" depart="4.00" from="421287644#0" to="29064745"/>
    <trip id="5" depart="5.00" from="29209338" to="132365043#3"/>
    <trip id="6" depart="6.00" from="-425149134#0" to="29046412"/>
    <trip id="7" depart="7.00" from="562353045#2" to="-100706530"/>
    <trip id="8" depart="8.00" from="48241991" to="356395719#3"/>
    <trip id="9" depart="9.00" from="414501726#1" to="-29064820#0"/>
    <trip id="10" depart="10.00" from="-29046037#3" to="-562353046#5"/>
    <trip id="11" depart="11.00" from="-29046334" to="51769243#0"/>
    <trip id="12" depart="12.00" from="356395763#1" to="130997992"/>
    <trip id="13" depart="13.00" from="132568467#4" to="29064742#1"/>
    <trip id="14" depart="14.00" from="288127024#1" to="-293657250#0"/>
    <trip id="15" depart="15.00" from="281430719#0" to="-288520055#8"/>
    <trip id="16" depart="16.00" from="189615593" to="29023816#1"/>
    <trip id="17" depart="17.00" from="27184354#2" to="-29023835#1"/>
    <trip id="18" depart="18.00" from="-477600636#1" to="29046622#0"/>
    <trip id="19" depart="19.00" from="-726565308" to="563969293"/>
    <trip id="20" depart="20.00" from="-562353046#3" to="27184648#7"/>
    <trip id="21" depart="21.00" from="126572817#4" to="-29023816#0"/>
    <trip id="22" depart="22.00" from="29023503#1" to="426450097#1"/>
    <trip id="23" depart="23.00" from="29209861#0" to="526521041"/>
    <trip id="24" depart="24.00" from="563064809#4" to="-29064499#2"/>
    <trip id="25" depart="25.00" from="-29046631#3" to="-562353045#1"/>
    <trip id="26" depart="26.00" from="563064823#1" to="219299291#0"/>
    <trip id="27" depart="27.00" from="-29064976#3" to="29064985#0"/>
    <trip id="28" depart="28.00" from="130774956#0" to="302660759"/>
    <trip id="29" depart="29.00" from="293657237" to="-30447864#2"/>
    <trip id="30" depart="30.00" from="29046400" to="-421287644#0"/>
    <trip id="31" depart="31.00" from="414501728" to="-425149134#1"/>
    <trip id="32" depart="32.00" from="-30446980" to="356395761#1"/>
    <trip id="33" depart="33.00" from="51769332#0" to="-273516917#2"/>
    <trip id="34" depart="34.00" from="28191218#0" to="356396453#1"/>
    <trip id="35" depart="35.00" from="288127038" to="222715866#1"/>
    <trip id="36" depart="36.00" from="-29046053#1" to="29083801#0"/>
    <trip id="37" depart="37.00" from="-28006270" to="-132631814#1"/>
    <trip id="38" depart="38.00" from="451653600#1" to="27184538#0"/>
    <trip id="39" depart="39.00" from="563064816#4" to="29065113#0"/>
    <trip id="40" depart="40.00" from="129439699#2" to="284329734#2"/>
    <trip id="41" depart="41.00" from="451653444" to="-29046087#1"/>
    <trip id="42" depart="42.00" from="-109197392" to="-29064418#3"/>
    <trip id="43" depart="43.00" from="-562353046#5" to="-29064141#0"/>
    <trip id="44" depart="44.00" from="89383725#0" to="-221915289"/>
    <trip id="45" depart="45.00" from="27184327#2" to="568609955#1"/>
    <trip id="46" depart="46.00" from="328270938#4" to="27090387"/>
    <trip id="47" depart="47.00" from="563064820#2" to="28212290#0"/>
    <trip id="48" depart="48.00" from="447936233" to="222715879#0"/>
    <trip id="49" depart="49.00" from="-359374793" to="563064809#0"/>
    <trip id="50" depart="50.00" from="-568609950" to="29046690#2"/>
    <trip id="51" depart="51.00" from="421686989" to="288127024#1"/>
    <trip id="52" depart="52.00" from="220238642" to="562494635"/>
    <trip id="53" depart="53.00" from="384167943#3" to="479026618#3"/>
    <trip id="54" depart="54.00" from="-242745810#0" to="-29023485"/>
    <trip id="55" depart="55.00" from="29065106#0" to="29023409#4"/>
    <trip id="56" depart="56.00" from="451652875#3" to="356395723"/>
    <trip id="57" depart="57.00" from="-500493463#10" to="29046334"/>
    <trip id="58" depart="58.00" from="-29065313#1" to="399000786"/>
    <trip id="59" depart="59.00" from="29065060#0" to="356396234#3"/>
    <trip id="60" depart="60.00" from="-28006371#3" to="-327072988"/>
    <trip id="61" depart="61.00" from="541101505#0" to="132630781#0"/>
    <trip id="62" depart="62.00" from="29046402" to="130862337#2"/>
    <trip id="63" depart="63.00" from="207947190" to="398444968#1"/>
    <trip id="64" depart="64.00" from="451652914" to="-500493463#11"/>
    <trip id="65" depart="65.00" from="356396252#0" to="-29064699"/>
    <trip id="66" depart="66.00" from="229817010#1" to="29209861#1"/>
    <trip id="67" depart="67.00" from="98396197" to="29065106#2"/>
    <trip id="68" depart="68.00" from="286813560" to="356396253#0"/>
    <trip id="69" depart="69.00" from="-221915289" to="131235005#8"/>
    <trip id="70" depart="70.00" from="562353046#2" to="526521042#1"/>
    <trip id="71" depart="71.00" from="451653055#2" to="356396453#1"/>
    <trip id="72" depart="72.00" from="82210397" to="527547050"/>
    <trip id="73" depart="73.00" from="28007757#1" to="-30593592#3"/>
    <trip id="74" depart="74.00" from="-563969350#2" to="29209011"/>
    <trip id="75" depart="75.00" from="-219401176#2" to="-130714231"/>
    <trip id="76" depart="76.00" from="327671764#2" to="356396234#0"/>
    <trip id="77" depart="77.00" from="89383720#7" to="324496399"/>
    <trip id="78" depart="78.00" from="562353046#1" to="288127022#1"/>
    <trip id="79" depart="79.00" from="-29046066#1" to="29209338"/>
    <trip id="80" depart="80.00" from="354893890" to="288127003"/>
    <trip id="81" depart="81.00" from="52532610#2" to="131234623#1"/>
    <trip id="82" depart="82.00" from="-29065139#1" to="-29064659#4"/>
    <trip id="83" depart="83.00" from="289829678#1" to="393433746"/>
    <trip id="84" depart="84.00" from="132629037#1" to="288127023"/>
    <trip id="85" depart="85.00" from="51769319#0" to="27090387"/>
    <trip id="86" depart="86.00" from="356395841#1" to="98396203"/>
    <trip id="87" depart="87.00" from="563064823#3" to="217019027#4"/>
    <trip id="88" depart="88.00" from="126572817#5" to="28191238#2"/>
    <trip id="89" depart="89.00" from="-345388005#0" to="27090387"/>
    <trip id="90" depart="90.00" from="330505380" to="109197380#4"/>
    <trip id="91" depart="91.00" from="-210161263" to="368780516"/>
    <trip id="92" depart="92.00" from="207947215" to="-324496398#0"/>
    <trip id="93" depart="93.00" from="302660759" to="109197380#3"/>
    <trip id="94" depart="94.00" from="500716359" to="327073005"/>
    <trip id="95" depart="95.00" from="29046355#1" to="154945537#0"/>
    <trip id="96" depart="96.00" from="-30511019#0" to="217019023#0"/>
    <trip id="97" depart="97.00" from="217019027#2" to="223941671#0"/>
    <trip id="98" depart="98.00" from="477278411#4" to="27184767#1"/>
    <trip id="99" depart="99.00" from="132635664#0" to="-27100950#1"/>
    <trip id="100" depart="100.00" from="29064932#5" to="29208969"/>
    <trip id="101" depart="101.00" from="330505380" to="563064819#1"/>
    <trip id="102" depart="102.00" from="477600659#0" to="393884910#0"/>
    <trip id="103" depart="103.00" from="393886252#0" to="29023370#1"/>
    <trip id="104" depart="104.00" from="288127007#1" to="-100706551"/>
    <trip id="105" depart="105.00" from="288520054#1" to="-314515599#0"/>
    <trip id="106" depart="106.00" from="-130997992" to="-360984382#3"/>
    <trip id="107" depart="107.00" from="356396731#1" to="477600659#0"/>
    <trip id="108" depart="108.00" from="-28191113#1" to="356396248"/>
    <trip id="109" depart="109.00" from="29046396#0" to="29064990#1"/>
    <trip id="110" depart="110.00" from="27184450#0" to="-100706540#0"/>
    <trip id="111" depart="111.00" from="219442233#1" to="29023294#1"/>
    <trip id="112" depart="112.00" from="425149134#0" to="-29065146#1"/>
    <trip id="113" depart="113.00" from="207947188" to="327072973#7"/>
    <trip id="114" depart="114.00" from="28191159#5" to="29065049#2"/>
    <trip id="115" depart="115.00" from="29064850#0" to="244909118#2"/>
    <trip id="116" depart="116.00" from="-89383720#7" to="29083801#0"/>
    <trip id="117" depart="117.00" from="29046709" to="30569964"/>
    <trip id="118" depart="118.00" from="-219442233#0" to="-562353046#2"/>
    <trip id="119" depart="119.00" from="288127020" to="89635221#2"/>
    <trip id="120" depart="120.00" from="447936236#2" to="27318929"/>
    <trip id="121" depart="121.00" from="109197388" to="220188320#5"/>
    <trip id="122" depart="122.00" from="451653504#0" to="29023294#1"/>
    <trip id="123" depart="123.00" from="28084132" to="29046643#1"/>
    <trip id="124" depart="124.00" from="28006423" to="368780516"/>
    <trip id="125" depart="125.00" from="-314515599#0" to="28007682#1"/>
    <trip id="126" depart="126.00" from="-221915289" to="100706551"/>
    <trip id="127" depart="127.00" from="-564475585#1" to="27184726#2"/>
    <trip id="128" depart="128.00" from="477600659#0" to="29083817#3"/>
    <trip id="129" depart="129.00" from="451652862#0" to="426393476"/>
    <trip id="130" depart="130.00" from="297988930" to="-29046785"/>
    <trip id="131" depart="131.00" from="28191113#1" to="-51769319#0"/>
    <trip id="132" depart="132.00" from="562494631#0" to="219401170"/>
    <trip id="133" depart="133.00" from="28008062" to="-356396518"/>
    <trip id="134" depart="134.00" from="51756748#0" to="69747609"/>
    <trip id="135" depart="135.00" from="29064897#1" to="243048857"/>
    <trip id="136" depart="136.00" from="473477208" to="207947200"/>
    <trip id="137" depart="137.00" from="30448736#0" to="-89634001#1"/>
    <trip id="138" depart="138.00" from="293657239#0" to="29065213#2"/>
    <trip id="139" depart="139.00" from="28006453" to="51756750"/>
    <trip id="140" depart="140.00" from="-29046264" to="221915289"/>
    <trip id="141" depart="141.00" from="220188315#0" to="527190627#1"/>
    <trip id="142" depart="142.00" from="454586884#1" to="132022856"/>
    <trip id="143" depart="143.00" from="28007793#1" to="-448055181#1"/>
    <trip id="144" depart="144.00" from="451652950#2" to="-222715879#4"/>
    <trip id="145" depart="145.00" from="451652990#6" to="-51813963#1"/>
    <trip id="146" depart="146.00" from="-89634001#1" to="-564475585#1"/>
    <trip id="147" depart="147.00" from="154945537#0" to="562494618"/>
    <trip id="148" depart="148.00" from="51769319#0" to="-222715860"/>
    <trip id="149" depart="149.00" from="29023362#2" to="-50472053"/>
    <trip id="150" depart="150.00" from="354893893#0" to="-370073324#2"/>
    <trip id="151" depart="151.00" from="30448764#1" to="288127018"/>
    <trip id="152" depart="152.00" from="563969350#0" to="27090408#0"/>
    <trip id="153" depart="153.00" from="-89383720#7" to="-29065060#1"/>
    <trip id="154" depart="154.00" from="495086996#0" to="293657249#0"/>
    <trip id="155" depart="155.00" from="51813963#4" to="254270777#1"/>
    <trip id="156" depart="156.00" from="126798186#0" to="77705542"/>
    <trip id="157" depart="157.00" from="327671764#0" to="108400423"/>
    <trip id="158" depart="158.00" from="-393897672#1" to="-29064418#5"/>
    <trip id="159" depart="159.00" from="242745810#0" to="29046402"/>
    <trip id="160" depart="160.00" from="-207947219#0" to="-29064498#0"/>
    <trip id="161" depart="161.00" from="-29046641#0" to="477174171#3"/>
    <trip id="162" depart="162.00" from="220188310" to="27184159#3"/>
    <trip id="163" depart="163.00" from="-29064381#4" to="37006005"/>
    <trip id="164" depart="164.00" from="219421422" to="288127024#1"/>
    <trip id="165" depart="165.00" from="-414501725#1" to="207947200"/>
    <trip id="166" depart="166.00" from="-425149134#2" to="288127038"/>
    <trip id="167" depart="167.00" from="398533894#1" to="219299291#2"/>
    <trip id="168" depart="168.00" from="327072970#3" to="28084132"/>
    <trip id="169" depart="169.00" from="29064533" to="562494636"/>
    <trip id="170" depart="170.00" from="288071291#3" to="233651398"/>
    <trip id="171" depart="171.00" from="453174808" to="29046552"/>
    <trip id="172" depart="172.00" from="-207947219#1" to="51691969#2"/>
    <trip id="173" depart="173.00" from="220130765#0" to="283272002#1"/>
    <trip id="174" depart="174.00" from="356396254#0" to="130716246#0"/>
    <trip id="175" depart="175.00" from="-286813560" to="562102991#1"/>
    <trip id="176" depart="176.00" from="28191530#0" to="312845765#3"/>
    <trip id="177" depart="177.00" from="29023141#0" to="-200444937#1"/>
    <trip id="178" depart="178.00" from="89384518#2" to="-562353046#3"/>
    <trip id="179" depart="179.00" from="220054997" to="-562353046#0"/>
    <trip id="180" depart="180.00" from="562353046#2" to="129440226"/>
    <trip id="181" depart="181.00" from="27184776#2" to="-733633144#0"/>
    <trip id="182" depart="182.00" from="326637320#0" to="29046292"/>
    <trip id="183" depart="183.00" from="28191239#0" to="-210161263"/>
    <trip id="184" depart="184.00" from="564475591#2" to="-548558203#0"/>
    <trip id="185" depart="185.00" from="293657239#1" to="29064499#0"/>
    <trip id="186" depart="186.00" from="-51769319#0" to="189615593"/>
    <trip id="187" depart="187.00" from="154945537#1" to="448386177#0"/>
    <trip id="188" depart="188.00" from="27184767#1" to="-27184354#2"/>
    <trip id="189" depart="189.00" from="-414501727#1" to="29046420#0"/>
    <trip id="190" depart="190.00" from="-210161256#1" to="477278411#0"/>
    <trip id="191" depart="191.00" from="243800328#0" to="219603936"/>
    <trip id="192" depart="192.00" from="219401166#3" to="-500493463#10"/>
    <trip id="193" depart="193.00" from="-451652862#2" to="447936233"/>
    <trip id="194" depart="194.00" from="-130716246#1" to="-220178979#1"/>
    <trip id="195" depart="195.00" from="-27184327#3" to="447936236#2"/>
    <trip id="196" depart="196.00" from="-219442225#0" to="327073004#0"/>
    <trip id="197" depart="197.00" from="-29046467" to="29023749"/>
    <trip id="198" depart="198.00" from="51813963#6" to="-29064990#0"/>
    <trip id="199" depart="199.00" from="51769318" to="562494623"/>
    <trip id="200" depart="200.00" from="-426450097#0" to="293657249#0"/>
    <trip id="201" depart="201.00" from="500716359" to="-477600653#0"/>
    <trip id="202" depart="202.00" from="89634001#1" to="29023368#1"/>
    <trip id="203" depart="203.00" from="-240368353#0" to="37006006"/>
    <trip id="204" depart="204.00" from="79545199#1" to="51756750"/>
    <trip id="205" depart="205.00" from="-548558203#0" to="29065070#0"/>
    <trip id="206" depart="206.00" from="30446353" to="219299293#1"/>
    <trip id="207" depart="207.00" from="-29064392#2" to="27184354#1"/>
    <trip id="208" depart="208.00" from="-414501727#0" to="29474897"/>
    <trip id="209" depart="209.00" from="29046169#0" to="356396063#0"/>
    <trip id="210" depart="210.00" from="-29083820#1" to="28006344#1"/>
    <trip id="211" depart="211.00" from="220188308#3" to="451652918#0"/>
    <trip id="212" depart="212.00" from="368774952" to="219403638#1"/>
    <trip id="213" depart="213.00" from="-27184512#1" to="371366621#0"/>
    <trip id="214" depart="214.00" from="447936259" to="29084257"/>
    <trip id="215" depart="215.00" from="29046338#1" to="356396680"/>
    <trip id="216" depart="216.00" from="29084257" to="-30511168"/>
    <trip id="217" depart="217.00" from="27184450#0" to="563064822"/>
    <trip id="218" depart="218.00" from="131876923#1" to="-28191218#1"/>
    <trip id="219" depart="219.00" from="89529768#1" to="89383723#1"/>
    <trip id="220" depart="220.00" from="699817257" to="29023503#1"/>
    <trip id="221" depart="221.00" from="29046673#1" to="-29064626#0"/>
    <trip id="222" depart="222.00" from="242746225#0" to="562353046#1"/>
    <trip id="223" depart="223.00" from="288127004#0" to="-29064479#0"/>
    <trip id="224" depart="224.00" from="393433741#1" to="219442236#1"/>
    <trip id="225" depart="225.00" from="27103886#0" to="27184512#1"/>
    <trip id="226" depart="226.00" from="-29064960#1" to="288071276#3"/>
    <trip id="227" depart="227.00" from="29064642#2" to="-51691969#2"/>
    <trip id="228" depart="228.00" from="217019022" to="356395765#2"/>
    <trip id="229" depart="229.00" from="220188309" to="541103326#4"/>
    <trip id="230" depart="230.00" from="356396501#1" to="563064824"/>
    <trip id="231" depart="231.00" from="448417835#0" to="-219401178#5"/>
    <trip id="232" depart="232.00" from="240368353#0" to="293657247#3"/>
    <trip id="233" depart="233.00" from="447936236#1" to="228758733"/>
    <trip id="234" depart="234.00" from="28007793#0" to="564475644"/>
    <trip id="235" depart="235.00" from="414501726#0" to="29065106#0"/>
    <trip id="236" depart="236.00" from="89383726#0" to="223077094"/>
    <trip id="237" depart="237.00" from="30448764#0" to="109197377#2"/>
    <trip id="238" depart="238.00" from="288071276#3" to="51816027#5"/>
    <trip id="239" depart="239.00" from="223077132#0" to="473340426"/>
    <trip id="240" depart="240.00" from="-288987771#1" to="356396254#1"/>
    <trip id="241" depart="241.00" from="60444380" to="414501728"/>
    <trip id="242" depart="242.00" from="273516917#2" to="-28191218#1"/>
    <trip id="243" depart="243.00" from="447936233" to="-29064408#5"/>
    <trip id="244" depart="244.00" from="51756748#1" to="52532594#0"/>
    <trip id="245" depart="245.00" from="477600605#1" to="332028341"/>
    <trip id="246" depart="246.00" from="224314986" to="-451653339"/>
    <trip id="247" depart="247.00" from="284329734#2" to="302660757#1"/>
    <trip id="248" depart="248.00" from="-477600636#0" to="29023485"/>
    <trip id="249" depart="249.00" from="-528133454" to="219401166#3"/>
    <trip id="250" depart="250.00" from="451652875#5" to="29065084"/>
    <trip id="251" depart="251.00" from="527547050" to="293657236"/>
    <trip id="252" depart="252.00" from="89635219#0" to="356395868"/>
    <trip id="253" depart="253.00" from="393647629#0" to="-360984382#1"/>
    <trip id="254" depart="254.00" from="29023420#5" to="448055181#1"/>
    <trip id="255" depart="255.00" from="-29064501#1" to="350274425#4"/>
    <trip id="256" depart="256.00" from="-563064809#5" to="60444755"/>
    <trip id="257" depart="257.00" from="154945537#0" to="-114440179#1"/>
    <trip id="258" depart="258.00" from="29065070#0" to="451652857"/>
    <trip id="259" depart="259.00" from="327073016#0" to="28191159#6"/>
    <trip id="260" depart="260.00" from="219401166#2" to="292231528"/>
    <trip id="261" depart="261.00" from="-699817257" to="345388005#0"/>
    <trip id="262" depart="262.00" from="-254270777#0" to="29065014#0"/>
    <trip id="263" depart="263.00" from="30511019#6" to="-451652862#2"/>
    <trip id="264" depart="264.00" from="-451653464#0" to="-541101505#0"/>
    <trip id="265" depart="265.00" from="288127002" to="29083908#0"/>
    <trip id="266" depart="266.00" from="169511645#1" to="-29023835#0"/>
    <trip id="267" depart="267.00" from="-548558203#2" to="-29023858"/>
    <trip id="268" depart="268.00" from="529252687#0" to="222715866#0"/>
    <trip id="269" depart="269.00" from="393647640#1" to="271374918#2"/>
    <trip id="270" depart="270.00" from="356395718#0" to="-219401170"/>
    <trip id="271" depart="271.00" from="654118930#1" to="288071276#3"/>
    <trip id="272" depart="272.00" from="-29064418#3" to="451653063#2"/>
    <trip id="273" depart="273.00" from="29064665#0" to="28006500"/>
    <trip id="274" depart="274.00" from="224314984#1" to="-29064725"/>
    <trip id="275" depart="275.00" from="29046738" to="454586882#0"/>
    <trip id="276" depart="276.00" from="477278420" to="-312845765#1"/>
    <trip id="277" depart="277.00" from="682183260#5" to="-29065213#3"/>
    <trip id="278" depart="278.00" from="51769319#0" to="-222715879#1"/>
    <trip id="279" depart="279.00" from="244787111#0" to="223077100#1"/>
    <trip id="280" depart="280.00" from="-29023485" to="399000785"/>
    <trip id="281" depart="281.00" from="327073003#2" to="394256225#1"/>
    <trip id="282" depart="282.00" from="-132631814#1" to="-29064932#2"/>
    <trip id="283" depart="283.00" from="-563969319#0" to="384167942#0"/>
    <trip id="284" depart="284.00" from="541103326#0" to="29083908#0"/>
    <trip id="285" depart="285.00" from="-29064932#1" to="29064680#2"/>
    <trip id="286" depart="286.00" from="293657249#0" to="448356016#2"/>
    <trip id="287" depart="287.00" from="-219401166#3" to="240368353#2"/>
    <trip id="288" depart="288.00" from="288520055#7" to="653742253#1"/>
    <trip id="289" depart="289.00" from="29065139#2" to="-564475633#3"/>
    <trip id="290" depart="290.00" from="451652862#2" to="451653063#1"/>
    <trip id="291" depart="291.00" from="29064616#0" to="-29046048#4"/>
    <trip id="292" depart="292.00" from="563969328" to="289829677"/>
    <trip id="293" depart="293.00" from="254852237#2" to="29211197"/>
    <trip id="294" depart="294.00" from="529252687#2" to="-451653583"/>
    <trip id="295" depart="295.00" from="28007757#0" to="500493259#0"/>
    <trip id="296" depart="296.00" from="210227193#0" to="-477600641#0"/>
    <trip id="297" depart="297.00" from="473340427#0" to="27082340#1"/>
    <trip id="298" depart="298.00" from="29046037#3" to="451652990#3"/>
    <trip id="299" depart="299.00" from="-219401178#2" to="-29046609"/>
    <trip id="300" depart="300.00" from="89383723#2" to="89529768#0"/>
    <trip id="301" depart="301.00" from="292231531" to="207947182"/>
    <trip id="302" depart="302.00" from="-654111917" to="451653068#4"/>
    <trip id="303" depart="303.00" from="426450097#0" to="-234447248"/>
    <trip id="304" depart="304.00" from="27184159#0" to="89529772"/>
    <trip id="305" depart="305.00" from="302660753" to="-562494623"/>
    <trip id="306" depart="306.00" from="-414501728" to="27184319"/>
    <trip id="307" depart="307.00" from="27184327#2" to="447936239"/>
    <trip id="308" depart="308.00" from="-223077115#0" to="500716359"/>
    <trip id="309" depart="309.00" from="-562353046#2" to="328270938#3"/>
    <trip id="310" depart="310.00" from="109197392" to="-413951845#1"/>
    <trip id="311" depart="311.00" from="-29064742#1" to="29064408#3"/>
    <trip id="312" depart="312.00" from="29064659#3" to="29064966#2"/>
    <trip id="313" depart="313.00" from="-29064418#3" to="29046457"/>
    <trip id="314" depart="314.00" from="29046420#0" to="326989898#1"/>
    <trip id="315" depart="315.00" from="132632800" to="451652991"/>
    <trip id="316" depart="316.00" from="327073002" to="51816027#1"/>
    <trip id="317" depart="317.00" from="564475644" to="354893876#0"/>
    <trip id="318" depart="318.00" from="272678642#1" to="27090408#0"/>
    <trip id="319" depart="319.00" from="29023409#3" to="-653742253#0"/>
    <trip id="320" depart="320.00" from="568609952#1" to="288127021#1"/>
    <trip id="321" depart="321.00" from="28191530#0" to="500493259#3"/>
    <trip id="322" depart="322.00" from="60444380" to="393884910#1"/>
    <trip id="323" depart="323.00" from="-414501725#1" to="479201577"/>
    <trip id="324" depart="324.00" from="562103046#0" to="-29064850#1"/>
    <trip id="325" depart="325.00" from="562353046#3" to="421287644#0"/>
    <trip id="326" depart="326.00" from="293657239#0" to="327334608#5"/>
    <trip id="327" depart="327.00" from="-414501725#1" to="27184655#1"/>
    <trip id="328" depart="328.00" from="563969347#2" to="-29064498#1"/>
    <trip id="329" depart="329.00" from="-30448736#2" to="356395841#0"/>
    <trip id="330" depart="330.00" from="29064501#1" to="29046638#1"/>
    <trip id="331" depart="331.00" from="219299294" to="-27100950#1"/>
    <trip id="332" depart="332.00" from="421287644#0" to="473340426"/>
    <trip id="333" depart="333.00" from="356396680" to="-29065313#2"/>
    <trip id="334" depart="334.00" from="32693539" to="398444968#1"/>
    <trip id="335" depart="335.00" from="288127014" to="53104765"/>
    <trip id="336" depart="336.00" from="447936239" to="-563969311#3"/>
    <trip id="337" depart="337.00" from="29064980" to="-89383720#7"/>
    <trip id="338" depart="338.00" from="-210227193#5" to="-562353045#0"/>
    <trip id="339" depart="339.00" from="288127023" to="29046621#3"/>
    <trip id="340" depart="340.00" from="-29046169#0" to="-477600653#1"/>
    <trip id="341" depart="341.00" from="89529750" to="89635221#2"/>
    <trip id="342" depart="342.00" from="27184776#1" to="563969317#1"/>
    <trip id="343" depart="343.00" from="29065216#2" to="-29083820#1"/>
    <trip id="344" depart="344.00" from="529252687#1" to="29046471"/>
    <trip id="345" depart="345.00" from="-29064498#0" to="562214287#2"/>
    <trip id="346" depart="346.00" from="563064823#4" to="-29064703#1"/>
    <trip id="347" depart="347.00" from="132635674" to="-27184354#1"/>
    <trip id="348" depart="348.00" from="29209861#0" to="-223077128#2"/>
    <trip id="349" depart="349.00" from="504115630" to="-29046165#0"/>
    <trip id="350" depart="350.00" from="288127023" to="-30570709#0"/>
    <trip id="351" depart="351.00" from="426450115" to="-29046552"/>
    <trip id="352" depart="352.00" from="-82210245#0" to="254270751"/>
    <trip id="353" depart="353.00" from="471664562#1" to="-219442225#4"/>
    <trip id="354" depart="354.00" from="29064842#0" to="29023485"/>
    <trip id="355" depart="355.00" from="-219401166#3" to="447936236#0"/>
    <trip id="356" depart="356.00" from="562494631#0" to="27184159#3"/>
    <trip id="357" depart="357.00" from="-222715850#0" to="89383720#7"/>
    <trip id="358" depart="358.00" from="29064839#0" to="89529774"/>
    <trip id="359" depart="359.00" from="219673760#0" to="29046355#2"/>
    <trip id="360" depart="360.00" from="447936239" to="414501727#0"/>
    <trip id="361" depart="361.00" from="398444968#1" to="-82210396#1"/>
    <trip id="362" depart="362.00" from="473477209" to="-327073001#0"/>
    <trip id="363" depart="363.00" from="-29046558" to="293657239#1"/>
    <trip id="364" depart="364.00" from="168068897" to="-28007682#1"/>
    <trip id="365" depart="365.00" from="29084283#1" to="131486122#0"/>
    <trip id="366" depart="366.00" from="288071291#0" to="51769332#2"/>
    <trip id="367" depart="367.00" from="237141145" to="27184420#8"/>
    <trip id="368" depart="368.00" from="368780516" to="479026618#0"/>
    <trip id="369" depart="369.00" from="477600657" to="-29065334#0"/>
    <trip id="370" depart="370.00" from="233553782" to="350274425#4"/>
    <trip id="371" depart="371.00" from="89634001#1" to="-30511168"/>
    <trip id="372" depart="372.00" from="-28006371#4" to="89384518#1"/>
    <trip id="373" depart="373.00" from="29211237" to="-451652862#2"/>
    <trip id="374" depart="374.00" from="14691002" to="327671764#2"/>
    <trip id="375" depart="375.00" from="447936233" to="28191238#1"/>
    <trip id="376" depart="376.00" from="-98396203" to="292231524"/>
    <trip id="377" depart="377.00" from="562353046#4" to="-563064809#5"/>
    <trip id="378" depart="378.00" from="709834914#0" to="293657247#1"/>
    <trip id="379" depart="379.00" from="-454586918" to="28005972#3"/>
    <trip id="380" depart="380.00" from="278951631" to="28191252#0"/>
    <trip id="381" depart="381.00" from="477600649#0" to="293657237"/>
    <trip id="382" depart="382.00" from="288127027" to="-200444937#1"/>
    <trip id="383" depart="383.00" from="326126524#1" to="-28191113#3"/>
    <trip id="384" depart="384.00" from="126572817#5" to="132630781#2"/>
    <trip id="385" depart="385.00" from="-222715850#1" to="29046050"/>
    <trip id="386" depart="386.00" from="29211086" to="29065213#3"/>
    <trip id="387" depart="387.00" from="451653058#2" to="281430668"/>
    <trip id="388" depart="388.00" from="29023370#2" to="-29065213#0"/>
    <trip id="389" depart="389.00" from="89529753#0" to="356396252#0"/>
    <trip id="390" depart="390.00" from="29064804#1" to="29046673#1"/>
    <trip id="391" depart="391.00" from="-29023777" to="288127005#3"/>
    <trip id="392" depart="392.00" from="451653062#0" to="200444937#1"/>
    <trip id="393" depart="393.00" from="-29046507" to="-29083908#1"/>
    <trip id="394" depart="394.00" from="51769319#0" to="451653068#1"/>
    <trip id="395" depart="395.00" from="207953593" to="27317926"/>
    <trip id="396" depart="396.00" from="-563969353#0" to="191928241"/>
    <trip id="397" depart="397.00" from="426359752#4" to="-563969349#5"/>
    <trip id="398" depart="398.00" from="-29064699" to="-220238642"/>
    <trip id="399" depart="399.00" from="-359374795#0" to="-27184648#7"/>
    <trip id="400" depart="400.00" from="223077100#0" to="29064418#3"/>
    <trip id="401" depart="401.00" from="29046087#1" to="-29023323#3"/>
    <trip id="402" depart="402.00" from="-240311246" to="451653055#2"/>
    <trip id="403" depart="403.00" from="451653351" to="356395719#7"/>
    <trip id="404" depart="404.00" from="563969297" to="224007128#0"/>
    <trip id="405" depart="405.00" from="89529745" to="29023840"/>
    <trip id="406" depart="406.00" from="393647643#4" to="27209609"/>
    <trip id="407" depart="407.00" from="293657247#0" to="219299315"/>
    <trip id="408" depart="408.00" from="326637318" to="-421287644#0"/>
    <trip id="409" depart="409.00" from="-29046552" to="-360984382#0"/>
    <trip id="410" depart="410.00" from="-29046507" to="473347659"/>
    <trip id="411" depart="411.00" from="-345388007#2" to="132632802#2"/>
    <trip id="412" depart="412.00" from="356396565" to="398533894#3"/>
    <trip id="413" depart="413.00" from="-27184648#7" to="-356396617"/>
    <trip id="414" depart="414.00" from="29046622#1" to="-29065049#1"/>
    <trip id="415" depart="415.00" from="-393647637#3" to="359374795#0"/>
    <trip id="416" depart="416.00" from="562494655" to="220188318#1"/>