<additional xmlns:xsi="http://www.w3.org/2001/XMLSchema-instance" xsi:noNamespaceSchemaLocation="http://sumo.dlr.de/xsd/additional_file.xsd">
    <e3Detector id="e3_297129341_-100706551" freq="90" file="e3output.xml">
        <detEntry lane="100706551_0" pos="150.67"/>
        <detEntry lane="-29046355#1_0" pos="42.26"/>
        <detEntry lane="-100706540#0_0" pos="30.93"/>
        <detExit lane="-100706551_0" pos="-.1"/>
    </e3Detector>
    <e3Detector id="e3_297129341_130716245#1" freq="90" file="e3output.xml">
        <detEntry lane="130716245#1_0" pos="0.10"/>
        <detEntry lane="130716245#1_1" pos="0.10"/>
        <detEntry lane="130716245#1_2" pos="0.10"/>
        <detEntry lane="130716245#1_3" pos="0.10"/>
        <detExit lane="130716245#1_0" pos="-.1"/>
        <detExit lane="130716245#1_1" pos="-.1"/>
        <detExit lane="130716245#1_2" pos="-.1"/>
        <detExit lane="130716245#1_3" pos="-.1"/>
    </e3Detector>
    <e3Detector id="e3_297129341_356396819" freq="90" file="e3output.xml">
        <detEntry lane="356396819_0" pos="0.10"/>
        <detExit lane="356396819_0" pos="-.1"/>
    </e3Detector>
    <e3Detector id="e3_297129341_451652875#4" freq="90" file="e3output.xml">
        <detEntry lane="451652875#4_0" pos="0.10"/>
        <detEntry lane="451652875#4_1" pos="0.10"/>
        <detEntry lane="451652875#4_2" pos="0.10"/>
        <detExit lane="451652875#4_0" pos="-.1"/>
        <detExit lane="451652875#4_1" pos="-.1"/>
        <detExit lane="451652875#4_2" pos="-.1"/>
    </e3Detector>
    <e3Detector id="e3_611935918_-126530350#0" freq="90" file="e3output.xml">
        <detEntry lane="126530350#0_0" pos="97.30"/>
        <detEntry lane="-126530350#1_0" pos="130.72"/>
        <detEntry lane="29064480#1_0" pos="85.25"/>
        <detEntry lane="-29064501#1_0" pos="53.66"/>
        <detExit lane="-126530350#0_0" pos="-.1"/>
    </e3Detector>
    <e3Detector id="e3_611935918_562214235#10" freq="90" file="e3output.xml">
        <detEntry lane="564475641_0" pos="12.23"/>
        <detEntry lane="562214235#5_0" pos="3.00"/>
        <detEntry lane="562214235#5_1" pos="3.00"/>
        <detEntry lane="130679130#5_0" pos="17.50"/>
        <detEntry lane="130679130#5_1" pos="17.50"/>
        <detEntry lane="-29064487_0" pos="13.82"/>
        <detEntry lane="330505380_0" pos="14.38"/>
        <detEntry lane="130679130#1_0" pos="7.54"/>
        <detEntry lane="130679130#1_1" pos="7.54"/>
        <detEntry lane="653742253#1_0" pos="37.36"/>
        <detEntry lane="-479279175_0" pos="2.26"/>
        <detEntry lane="-29064533_0" pos="280.70"/>
        <detEntry lane="477600610_0" pos="0.10"/>
        <detEntry lane="477600610_1" pos="0.10"/>
        <detExit lane="562214235#10_0" pos="-.1"/>
        <detExit lane="562214235#10_1" pos="-.1"/>
    </e3Detector>
    <e3Detector id="e3_297130764_-132631814#0" freq="90" file="e3output.xml">
        <detEntry lane="132631814#0_0" pos="0.10"/>
        <detEntry lane="132631814#0_1" pos="0.10"/>
        <detEntry lane="563969320_0" pos="3.50"/>
        <detEntry lane="-29046264_0" pos="193.29"/>
        <detEntry lane="-356396522_0" pos="57.16"/>
        <detEntry lane="30569964_0" pos="25.98"/>
        <detEntry lane="132630782#0_0" pos="100.78"/>
        <detEntry lane="132630782#0_1" pos="100.78"/>
        <detEntry lane="-132631814#1_0" pos="67.37"/>
        <detEntry lane="-132631814#1_1" pos="67.37"/>
        <detExit lane="-132631814#0_0" pos="-.1"/>
        <detExit lane="-132631814#0_1" pos="-.1"/>
    </e3Detector>
    <e3Detector id="e3_297130764_132632797#5" freq="90" file="e3output.xml">
        <detEntry lane="563969299#0_0" pos="40.85"/>
        <detEntry lane="29023844_0" pos="25.53"/>
        <detEntry lane="29023850_0" pos="29.74"/>
        <detEntry lane="-563969298_0" pos="61.31"/>
        <detEntry lane="356397808_0" pos="155.95"/>
        <detEntry lane="132632797#1_0" pos="117.35"/>
        <detEntry lane="132632797#1_1" pos="117.35"/>
        <detEntry lane="-29023810_0" pos="35.18"/>
        <detExit lane="132632797#5_0" pos="-.1"/>
        <detExit lane="132632797#5_1" pos="-.1"/>
    </e3Detector>
    <e3Detector id="e3_319703382_-132632801" freq="90" file="e3output.xml">
        <detEntry lane="-132632801_0" pos="6.41"/>
        <detExit lane="-132632801_0" pos="-.1"/>
    </e3Detector>
    <e3Detector id="e3_319703382_356396234#1" freq="90" file="e3output.xml">
        <detEntry lane="132632800_0" pos="304.27"/>
        <detEntry lane="132632800_1" pos="304.27"/>
        <detEntry lane="240571587#3_0" pos="131.26"/>
        <detEntry lane="-240571609#1_0" pos="21.42"/>
        <detExit lane="356396234#1_0" pos="-.1"/>
        <detExit lane="356396234#1_1" pos="-.1"/>
    </e3Detector>
    <e3Detector id="e3_319703382_356396705" freq="90" file="e3output.xml">
        <detEntry lane="356396705_0" pos="0.10"/>
        <detEntry lane="356396705_1" pos="0.10"/>
        <detExit lane="356396705_0" pos="-.1"/>
        <detExit lane="356396705_1" pos="-.1"/>
    </e3Detector>
    <e3Detector id="e3_641955449_-132632804" freq="90" file="e3output.xml">
        <detEntry lane="-132632804_0" pos="0.10"/>
        <detExit lane="-132632804_0" pos="-.1"/>
    </e3Detector>
    <e3Detector id="e3_641955449_132635664#2" freq="90" file="e3output.xml">
        <detEntry lane="356396840_0" pos="36.38"/>
        <detEntry lane="132635664#0_0" pos="31.73"/>
        <detEntry lane="132635664#0_1" pos="31.73"/>
        <detEntry lane="-29064146_0" pos="34.94"/>
        <detEntry lane="132632805_0" pos="184.07"/>
        <detEntry lane="-394256211_0" pos="24.44"/>
        <detEntry lane="-29064141#0_0" pos="47.53"/>
        <detEntry lane="-563969307_0" pos="88.11"/>
        <detEntry lane="-29064141#1_0" pos="0.52"/>
        <detExit lane="132635664#2_0" pos="-.1"/>
        <detExit lane="132635664#2_1" pos="-.1"/>
    </e3Detector>
    <e3Detector id="e3_641955449_394256211" freq="90" file="e3output.xml">
        <detEntry lane="132632805_0" pos="26.05"/>
        <detEntry lane="-394256211_0" pos="0.10"/>
        <detEntry lane="356397488_0" pos="43.80"/>
        <detEntry lane="132635664#1_0" pos="38.90"/>
        <detEntry lane="132635664#1_1" pos="38.90"/>
        <detEntry lane="-563969307_0" pos="198.01"/>
        <detEntry lane="-29064141#1_0" pos="110.42"/>
        <detExit lane="394256211_0" pos="-.1"/>
    </e3Detector>
    <e3Detector id="e3_641955502_-220178979#0" freq="90" file="e3output.xml">
        <detEntry lane="30570034#0_0" pos="178.76"/>
        <detEntry lane="-30570034#1_0" pos="66.92"/>
        <detEntry lane="-29046212_0" pos="67.38"/>
        <detEntry lane="29046214#0_0" pos="4.68"/>
        <detEntry lane="220178979#0_0" pos="78.96"/>
        <detEntry lane="-220178979#1_0" pos="38.53"/>
        <detExit lane="-220178979#0_0" pos="-.1"/>
    </e3Detector>
    <e3Detector id="e3_641955502_132630782#3" freq="90" file="e3output.xml">
        <detEntry lane="132630782#2_0" pos="102.07"/>
        <detEntry lane="132630782#2_1" pos="102.07"/>
        <detEntry lane="356397929_0" pos="105.28"/>
        <detEntry lane="-29046214#0_0" pos="40.33"/>
        <detExit lane="132630782#3_0" pos="-.1"/>
        <detExit lane="132630782#3_1" pos="-.1"/>
    </e3Detector>
    <e3Detector id="e3_641955502_356396115" freq="90" file="e3output.xml">
        <detEntry lane="356396115_0" pos="0.10"/>
        <detExit lane="356396115_0" pos="-.1"/>
    </e3Detector>
    <e3Detector id="e3_477282749_-220188355" freq="90" file="e3output.xml">
        <detEntry lane="29064499#0_0" pos="25.77"/>
        <detEntry lane="29064498#0_0" pos="99.04"/>
        <detEntry lane="-29064499#1_0" pos="77.84"/>
        <detEntry lane="-29064498#1_0" pos="98.37"/>
        <detEntry lane="220188355_0" pos="0.10"/>
        <detEntry lane="564475637_0" pos="122.60"/>
        <detEntry lane="29064501#3_0" pos="20.71"/>
        <detEntry lane="-29064501#4_0" pos="20.98"/>
        <detEntry lane="29064499#2_0" pos="67.72"/>
        <detEntry lane="29064479#0_0" pos="96.05"/>
        <detEntry lane="-29064479#1_0" pos="97.60"/>
        <detEntry lane="-219303549#0_0" pos="65.13"/>
        <detExit lane="-220188355_0" pos="-.1"/>
    </e3Detector>
    <e3Detector id="e3_477282749_-28006371#4" freq="90" file="e3output.xml">
        <detEntry lane="28006371#4_0" pos="0.10"/>
        <detEntry lane="29064499#0_0" pos="19.70"/>
        <detEntry lane="29064498#0_0" pos="92.97"/>
        <detEntry lane="-29064499#1_0" pos="71.77"/>
        <detEntry lane="-29064498#1_0" pos="92.30"/>
        <detEntry lane="-564475636#0_0" pos="190.79"/>
        <detEntry lane="-29064497_0" pos="18.59"/>
        <detExit lane="-28006371#4_0" pos="-.1"/>
    </e3Detector>
    <e3Detector id="e3_477282749_-29064477" freq="90" file="e3output.xml">
        <detEntry lane="-29064477_0" pos="30.58"/>
        <detExit lane="-29064477_0" pos="-.1"/>
    </e3Detector>
    <e3Detector id="e3_477282749_28006371#3" freq="90" file="e3output.xml">
        <detEntry lane="29064499#2_0" pos="70.77"/>
        <detEntry lane="29064479#0_0" pos="99.10"/>
        <detEntry lane="-29064479#1_0" pos="100.65"/>
        <detEntry lane="-219303549#0_0" pos="68.18"/>
        <detEntry lane="28006371#0_0" pos="65.67"/>
        <detEntry lane="-51691461#0_0" pos="19.26"/>
        <detEntry lane="-29064480#0_0" pos="106.83"/>
        <detEntry lane="-28006371#2_0" pos="69.93"/>
        <detEntry lane="220238642_0" pos="51.71"/>
        <detEntry lane="-28006371#3_0" pos="0.10"/>
        <detExit lane="28006371#3_0" pos="-.1"/>
    </e3Detector>
    <e3Detector id="e3_2328387863_-224007122" freq="90" file="e3output.xml">
        <detEntry lane="-224007122_0" pos="0.10"/>
        <detExit lane="-224007122_0" pos="-.1"/>
    </e3Detector>
    <e3Detector id="e3_2328387863_224007126" freq="90" file="e3output.xml">
        <detEntry lane="222420375#2_0" pos="0.10"/>
        <detEntry lane="224007147#1_0" pos="0.10"/>
        <detEntry lane="224007147#1_1" pos="0.10"/>
        <detExit lane="224007126_0" pos="-.1"/>
        <detExit lane="224007126_1" pos="-.1"/>
    </e3Detector>
    <e3Detector id="e3_2328387863_527190627#2" freq="90" file="e3output.xml">
        <detEntry lane="232952928#3_0" pos="0.10"/>
        <detEntry lane="232952928#3_1" pos="0.10"/>
        <detEntry lane="232952928#3_2" pos="0.10"/>
        <detEntry lane="235541763_0" pos="8.10"/>
        <detEntry lane="-527190627#1_0" pos="30.12"/>
        <detEntry lane="-527190627#2_0" pos="0.10"/>
        <detExit lane="527190627#2_0" pos="-.1"/>
        <detExit lane="527190627#2_1" pos="-.1"/>
        <detExit lane="527190627#2_2" pos="-.1"/>
        <detExit lane="527190627#2_3" pos="-.1"/>
    </e3Detector>
    <e3Detector id="e3_1138526892_-242745813#1" freq="90" file="e3output.xml">
        <detEntry lane="-242745813#1_0" pos="0.10"/>
        <detExit lane="-242745813#1_0" pos="-.1"/>
    </e3Detector>
    <e3Detector id="e3_1138526892_242745813#0" freq="90" file="e3output.xml">
        <detEntry lane="242745812_0" pos="0.10"/>
        <detEntry lane="-242745813#0_0" pos="0.10"/>
        <detExit lane="242745813#0_0" pos="-.1"/>
    </e3Detector>
    <e3Detector id="e3_1138527134_-242745813#2" freq="90" file="e3output.xml">
        <detEntry lane="-242745813#2_0" pos="0.10"/>
        <detExit lane="-242745813#2_0" pos="-.1"/>
    </e3Detector>
    <e3Detector id="e3_1138527134_242745813#1" freq="90" file="e3output.xml">
        <detEntry lane="242745813#1_0" pos="0.10"/>
        <detExit lane="242745813#1_0" pos="-.1"/>
    </e3Detector>
    <e3Detector id="e3_1138527029_-242745813#3" freq="90" file="e3output.xml">
        <detEntry lane="-242745813#3_0" pos="0.10"/>
        <detExit lane="-242745813#3_0" pos="-.1"/>
    </e3Detector>
    <e3Detector id="e3_1138527029_242745813#2" freq="90" file="e3output.xml">
        <detEntry lane="242745813#2_0" pos="0.10"/>
        <detExit lane="242745813#2_0" pos="-.1"/>
    </e3Detector>
    <e3Detector id="e3_1138527029_98401043#0" freq="90" file="e3output.xml">
        <detEntry lane="98401043#0_0" pos="0.10"/>
        <detExit lane="98401043#0_0" pos="-.1"/>
    </e3Detector>
    <e3Detector id="e3_1138526994_-242745813#4" freq="90" file="e3output.xml">
        <detEntry lane="-242745813#4_0" pos="0.10"/>
        <detExit lane="-242745813#4_0" pos="-.1"/>
    </e3Detector>
    <e3Detector id="e3_1138526994_242745813#3" freq="90" file="e3output.xml">
        <detEntry lane="242745813#3_0" pos="0.10"/>
        <detExit lane="242745813#3_0" pos="-.1"/>
    </e3Detector>
    <e3Detector id="e3_477265107_-27184512#2" freq="90" file="e3output.xml">
        <detEntry lane="563064822_0" pos="182.67"/>
        <detEntry lane="356396482_0" pos="22.76"/>
        <detEntry lane="356396482_1" pos="22.76"/>
        <detEntry lane="27184512#2_0" pos="68.26"/>
        <detEntry lane="27184512#2_1" pos="68.26"/>
        <detExit lane="-27184512#2_0" pos="-.1"/>
        <detExit lane="-27184512#2_1" pos="-.1"/>
    </e3Detector>
    <e3Detector id="e3_477265107_27184512#1" freq="90" file="e3output.xml">
        <detEntry lane="27184538#0_0" pos="207.82"/>
        <detEntry lane="27184512#0_0" pos="96.46"/>
        <detEntry lane="27184512#0_1" pos="96.46"/>
        <detEntry lane="-27184512#1_0" pos="0.10"/>
        <detEntry lane="-27184512#1_1" pos="0.10"/>
        <detExit lane="27184512#1_0" pos="-.1"/>
        <detExit lane="27184512#1_1" pos="-.1"/>
    </e3Detector>
    <e3Detector id="e3_477265107_393647640#2" freq="90" file="e3output.xml">
        <detEntry lane="393647640#2_0" pos="25.72"/>
        <detExit lane="393647640#2_0" pos="-.1"/>
    </e3Detector>
    <e3Detector id="e3_445086783_-27184648#5" freq="90" file="e3output.xml">
        <detEntry lane="-27184648#5_0" pos="0.10"/>
        <detExit lane="-27184648#5_0" pos="-.1"/>
    </e3Detector>
    <e3Detector id="e3_445086783_27184648#4" freq="90" file="e3output.xml">
        <detEntry lane="37997055_0" pos="78.17"/>
        <detEntry lane="27184648#1_0" pos="86.84"/>
        <detEntry lane="-27184648#2_0" pos="49.48"/>
        <detEntry lane="109197392_0" pos="9.87"/>
        <detEntry lane="219299286#1_0" pos="101.86"/>
        <detEntry lane="-27184648#4_0" pos="77.64"/>
        <detEntry lane="-219299286#2_0" pos="91.20"/>
        <detExit lane="27184648#4_0" pos="-.1"/>
    </e3Detector>
    <e3Detector id="e3_445086783_356395841#0" freq="90" file="e3output.xml">
        <detEntry lane="356395841#0_0" pos="0.10"/>
        <detEntry lane="356395841#0_1" pos="0.10"/>
        <detExit lane="356395841#0_0" pos="-.1"/>
        <detExit lane="356395841#0_1" pos="-.1"/>
    </e3Detector>
    <e3Detector id="e3_445086787_-27184648#6" freq="90" file="e3output.xml">
        <detEntry lane="27184648#6_0" pos="0.10"/>
        <detEntry lane="130775458#0_0" pos="49.66"/>
        <detEntry lane="130775458#0_1" pos="49.66"/>
        <detEntry lane="27184648#7_0" pos="11.07"/>
        <detEntry lane="27184372#1_0" pos="34.13"/>
        <detEntry lane="-568609955#0_0" pos="17.00"/>
        <detExit lane="-27184648#6_0" pos="-.1"/>
    </e3Detector>
    <e3Detector id="e3_445086787_222715979#5" freq="90" file="e3output.xml">
        <detEntry lane="393647643#4_0" pos="32.50"/>
        <detEntry lane="219299293#1_0" pos="55.40"/>
        <detEntry lane="350274425#0_0" pos="38.78"/>
        <detEntry lane="222715979#2_0" pos="62.71"/>
        <detEntry lane="222715979#2_1" pos="62.71"/>
        <detExit lane="222715979#5_0" pos="-.1"/>
        <detExit lane="222715979#5_1" pos="-.1"/>
    </e3Detector>
    <e3Detector id="e3_445086787_27184648#5" freq="90" file="e3output.xml">
        <detEntry lane="27184648#5_0" pos="0.10"/>
        <detExit lane="27184648#5_0" pos="-.1"/>
    </e3Detector>
    <e3Detector id="e3_3618663264_-281435897#1" freq="90" file="e3output.xml">
        <detEntry lane="281435897#1_0" pos="0.10"/>
        <detEntry lane="281435898#1_0" pos="87.84"/>
        <detEntry lane="-281435897#3_0" pos="458.64"/>
        <detExit lane="-281435897#1_0" pos="-.1"/>
    </e3Detector>
    <e3Detector id="e3_3618663264_230069371#0" freq="90" file="e3output.xml">
        <detEntry lane="230069371#0_0" pos="1011.91"/>
        <detExit lane="230069371#0_0" pos="-.1"/>
    </e3Detector>
    <e3Detector id="e3_3618663264_281435897#0" freq="90" file="e3output.xml">
        <detEntry lane="526521041_0" pos="182.83"/>
        <detEntry lane="526521041_1" pos="182.83"/>
        <detEntry lane="-460572122#0_0" pos="30.97"/>
        <detEntry lane="-460572122#0_1" pos="30.97"/>
        <detEntry lane="-371497675#0_0" pos="110.72"/>
        <detEntry lane="-281435897#0_0" pos="0.10"/>
        <detEntry lane="-529544873_0" pos="86.57"/>
        <detEntry lane="460572122#2_0" pos="104.19"/>
        <detEntry lane="460572122#2_1" pos="104.19"/>
        <detEntry lane="-477600643_0" pos="36.47"/>
        <detEntry lane="-477600643_1" pos="36.47"/>
        <detExit lane="281435897#0_0" pos="-.1"/>
    </e3Detector>
    <e3Detector id="e3_2328387884_-28212187#0" freq="90" file="e3output.xml">
        <detEntry lane="283533787_0" pos="0.10"/>
        <detEntry lane="283533787_1" pos="0.10"/>
        <detEntry lane="28212187#0_0" pos="0.10"/>
        <detEntry lane="28212187#0_1" pos="0.10"/>
        <detEntry lane="28212187#0_2" pos="0.10"/>
        <detEntry lane="28212187#0_3" pos="0.10"/>
        <detEntry lane="235537906#1_0" pos="14.03"/>
        <detEntry lane="224007162#1_0" pos="11.95"/>
        <detEntry lane="-235537905#1_0" pos="5.58"/>
        <detEntry lane="224007158_0" pos="0.10"/>
        <detEntry lane="224007135#0_0" pos="0.10"/>
        <detEntry lane="224007135#0_1" pos="0.10"/>
        <detEntry lane="224007135#0_2" pos="0.10"/>
        <detEntry lane="224007135#0_3" pos="0.10"/>
        <detEntry lane="-28212187#1_0" pos="0.10"/>
        <detExit lane="-28212187#0_0" pos="-.1"/>
    </e3Detector>
    <e3Detector id="e3_2328387884_224007122" freq="90" file="e3output.xml">
        <detEntry lane="224007122_0" pos="0.10"/>
        <detEntry lane="224007122_1" pos="0.10"/>
        <detEntry lane="224007122_2" pos="0.10"/>
        <detEntry lane="224007122_3" pos="0.10"/>
        <detExit lane="224007122_0" pos="-.1"/>
        <detExit lane="224007122_1" pos="-.1"/>
        <detExit lane="224007122_2" pos="-.1"/>
        <detExit lane="224007122_3" pos="-.1"/>
    </e3Detector>
    <e3Detector id="e3_2328387884_224007131" freq="90" file="e3output.xml">
        <detEntry lane="235537906#1_0" pos="13.83"/>
        <detEntry lane="224007162#1_0" pos="11.75"/>
        <detEntry lane="-235537905#1_0" pos="5.38"/>
        <detEntry lane="224007158_0" pos="0.10"/>
        <detEntry lane="224007135#0_0" pos="0.10"/>
        <detEntry lane="224007135#0_1" pos="0.10"/>
        <detEntry lane="224007135#0_2" pos="0.10"/>
        <detEntry lane="224007135#0_3" pos="0.10"/>
        <detExit lane="224007131_0" pos="-.1"/>
        <detExit lane="224007131_1" pos="-.1"/>
    </e3Detector>
    <e3Detector id="e3_2068464805_-288987773#1" freq="90" file="e3output.xml">
        <detEntry lane="-288987776_0" pos="54.97"/>
        <detExit lane="-288987773#1_0" pos="-.1"/>
    </e3Detector>
    <e3Detector id="e3_2068464805_230069371#2" freq="90" file="e3output.xml">
        <detEntry lane="230069371#1_0" pos="309.89"/>
        <detExit lane="230069371#2_0" pos="-.1"/>
    </e3Detector>
    <e3Detector id="e3_2068464805_288987773#0" freq="90" file="e3output.xml">
        <detEntry lane="529252687#1_0" pos="5.64"/>
        <detEntry lane="529252687#1_1" pos="5.64"/>
        <detEntry lane="-288987773#0_0" pos="0.10"/>
        <detEntry lane="526521042#1_0" pos="56.21"/>
        <detEntry lane="-526521041_0" pos="136.02"/>
        <detEntry lane="-526521041_1" pos="136.02"/>
        <detExit lane="288987773#0_0" pos="-.1"/>
    </e3Detector>
    <e3Detector id="e3_3337851347_-327072970#0" freq="90" file="e3output.xml">
        <detEntry lane="327072970#0_0" pos="0.10"/>
        <detEntry lane="327072970#0_1" pos="0.10"/>
        <detEntry lane="564475608_0" pos="9.03"/>
        <detEntry lane="413951845#2_0" pos="8.58"/>
        <detEntry lane="-448386203_0" pos="42.88"/>
        <detEntry lane="-448386204_0" pos="27.86"/>
        <detEntry lane="-413951845#4_0" pos="5.01"/>
        <detEntry lane="327072973#10_0" pos="43.89"/>
        <detEntry lane="327072973#10_1" pos="43.89"/>
        <detEntry lane="-448386158#0_0" pos="19.58"/>
        <detEntry lane="-327072973#13_0" pos="16.10"/>
        <detEntry lane="-327072973#13_1" pos="16.10"/>
        <detEntry lane="-29065014#0_0" pos="9.70"/>
        <detEntry lane="288519944_0" pos="33.70"/>
        <detEntry lane="-327072973#15_0" pos="0.10"/>
        <detEntry lane="-327072973#15_1" pos="0.10"/>
        <detEntry lane="-29064990#1_0" pos="38.12"/>
        <detEntry lane="-302660763_0" pos="53.43"/>
        <detEntry lane="451653493#1_0" pos="48.49"/>
        <detEntry lane="327072970#3_0" pos="13.69"/>
        <detEntry lane="327072970#3_1" pos="13.69"/>
        <detEntry lane="-451652862#0_0" pos="107.49"/>
        <detEntry lane="-451652862#0_1" pos="107.49"/>
        <detExit lane="-327072970#0_0" pos="-.1"/>
        <detExit lane="-327072970#0_1" pos="-.1"/>
    </e3Detector>
    <e3Detector id="e3_3337851347_451652858#1" freq="90" file="e3output.xml">
        <detEntry lane="451653058#2_0" pos="28.42"/>
        <detEntry lane="451652991_0" pos="304.82"/>
        <detEntry lane="451652856#0_0" pos="22.21"/>
        <detEntry lane="29065213#0_0" pos="77.92"/>
        <detEntry lane="-29065213#1_0" pos="68.10"/>
        <detEntry lane="-288520007#0_0" pos="5.27"/>
        <detExit lane="451652858#1_0" pos="-.1"/>
    </e3Detector>
    <e3Detector id="e3_3337851347_454586872" freq="90" file="e3output.xml">
        <detEntry lane="454586872_0" pos="0.10"/>
        <detEntry lane="454586872_1" pos="0.10"/>
        <detExit lane="454586872_0" pos="-.1"/>
        <detExit lane="454586872_1" pos="-.1"/>
    </e3Detector>
    <e3Detector id="e3_1036698074_-327073016#0" freq="90" file="e3output.xml">
        <detEntry lane="327073016#0_0" pos="160.18"/>
        <detEntry lane="89383723#2_0" pos="343.13"/>
        <detEntry lane="89383723#2_1" pos="343.13"/>
        <detEntry lane="-491963755#0_0" pos="32.12"/>
        <detEntry lane="-411796602_0" pos="190.52"/>
        <detExit lane="-327073016#0_0" pos="-.1"/>
    </e3Detector>
    <e3Detector id="e3_1036698074_493706816" freq="90" file="e3output.xml">
        <detEntry lane="-327072986_0" pos="35.22"/>
        <detEntry lane="-493706816_0" pos="0.10"/>
        <detEntry lane="-29084319#0_0" pos="345.51"/>
        <detExit lane="493706816_0" pos="-.1"/>
    </e3Detector>
    <e3Detector id="e3_1036698074_89383720#9" freq="90" file="e3output.xml">
        <detEntry lane="89383720#9_0" pos="172.63"/>
        <detExit lane="89383720#9_0" pos="-.1"/>
    </e3Detector>
    <e3Detector id="e3_3618663417_-356396115" freq="90" file="e3output.xml">
        <detEntry lane="-356396115_0" pos="0.10"/>
        <detExit lane="-356396115_0" pos="-.1"/>
    </e3Detector>
    <e3Detector id="e3_3618663417_356396116" freq="90" file="e3output.xml">
        <detEntry lane="356396116_0" pos="0.10"/>
        <detExit lane="356396116_0" pos="-.1"/>
    </e3Detector>
    <e3Detector id="e3_3618663417_356398346" freq="90" file="e3output.xml">
        <detEntry lane="356397929_0" pos="125.73"/>
        <detEntry lane="132630782#2_0" pos="122.92"/>
        <detEntry lane="132630782#2_1" pos="122.92"/>
        <detEntry lane="-29046214#0_0" pos="60.78"/>
        <detExit lane="356398346_0" pos="-.1"/>
    </e3Detector>
    <e3Detector id="e3_3618663416_-356396116" freq="90" file="e3output.xml">
        <detEntry lane="-356396116_0" pos="0.10"/>
        <detExit lane="-356396116_0" pos="-.1"/>
    </e3Detector>
    <e3Detector id="e3_3618663416_132632804" freq="90" file="e3output.xml">
        <detEntry lane="132632804_0" pos="0.10"/>
        <detExit lane="132632804_0" pos="-.1"/>
    </e3Detector>
    <e3Detector id="e3_3618663416_356397874" freq="90" file="e3output.xml">
        <detEntry lane="356396840_0" pos="41.38"/>
        <detEntry lane="132635664#0_0" pos="36.73"/>
        <detEntry lane="132635664#0_1" pos="36.73"/>
        <detEntry lane="-29064146_0" pos="39.94"/>
        <detEntry lane="132632805_0" pos="189.07"/>
        <detEntry lane="-394256211_0" pos="29.44"/>
        <detEntry lane="-29064141#0_0" pos="52.53"/>
        <detEntry lane="-563969307_0" pos="93.11"/>
        <detEntry lane="-29064141#1_0" pos="5.52"/>
        <detExit lane="356397874_0" pos="-.1"/>
    </e3Detector>
    <e3Detector id="e3_1806732406_-356396856" freq="90" file="e3output.xml">
        <detEntry lane="-356396856_0" pos="0.10"/>
        <detExit lane="-356396856_0" pos="-.1"/>
    </e3Detector>
    <e3Detector id="e3_1806732406_356397375" freq="90" file="e3output.xml">
        <detEntry lane="356397375_0" pos="0.10"/>
        <detExit lane="356397375_0" pos="-.1"/>
    </e3Detector>
    <e3Detector id="e3_1806732399_-356397375" freq="90" file="e3output.xml">
        <detEntry lane="-356397375_0" pos="0.10"/>
        <detExit lane="-356397375_0" pos="-.1"/>
    </e3Detector>
    <e3Detector id="e3_1806732399_-356397897" freq="90" file="e3output.xml">
        <detEntry lane="356398289#1_0" pos="0.10"/>
        <detEntry lane="356397897_0" pos="0.10"/>
        <detEntry lane="356396928_0" pos="0.10"/>
        <detEntry lane="189615577#1_0" pos="0.10"/>
        <detEntry lane="189615577#1_1" pos="0.10"/>
        <detExit lane="-356397897_0" pos="-.1"/>
    </e3Detector>
    <e3Detector id="e3_1806732399_356397564" freq="90" file="e3output.xml">
        <detEntry lane="510034597_0" pos="21.61"/>
        <detEntry lane="330362896_0" pos="83.78"/>
        <detEntry lane="132629040#1_0" pos="164.23"/>
        <detEntry lane="356398289#1_0" pos="0.10"/>
        <detEntry lane="356397897_0" pos="0.10"/>
        <detEntry lane="356396928_0" pos="0.10"/>
        <detEntry lane="189615577#1_0" pos="0.10"/>
        <detEntry lane="189615577#1_1" pos="0.10"/>
        <detEntry lane="27082316#4_0" pos="0.10"/>
        <detEntry lane="27082316#4_1" pos="0.10"/>
        <detExit lane="356397564_0" pos="-.1"/>
    </e3Detector>
    <e3Detector id="e3_3618663746_-356397381" freq="90" file="e3output.xml">
        <detEntry lane="-356398196#0_0" pos="0.10"/>
        <detExit lane="-356397381_0" pos="-.1"/>
    </e3Detector>
    <e3Detector id="e3_3618663746_130716245#0" freq="90" file="e3output.xml">
        <detEntry lane="130716245#0_0" pos="0.10"/>
        <detEntry lane="130716245#0_1" pos="0.10"/>
        <detEntry lane="130716245#0_2" pos="0.10"/>
        <detEntry lane="130716245#0_3" pos="0.10"/>
        <detExit lane="130716245#0_0" pos="-.1"/>
        <detExit lane="130716245#0_1" pos="-.1"/>
        <detExit lane="130716245#0_2" pos="-.1"/>
        <detExit lane="130716245#0_3" pos="-.1"/>
    </e3Detector>
    <e3Detector id="e3_3618663746_356397594" freq="90" file="e3output.xml">
        <detEntry lane="356397594_0" pos="0.10"/>
        <detExit lane="356397594_0" pos="-.1"/>
    </e3Detector>
    <e3Detector id="e3_3618663864_-356397611#1" freq="90" file="e3output.xml">
        <detEntry lane="356397611#1_0" pos="0.10"/>
        <detEntry lane="132568466#0_0" pos="0.10"/>
        <detEntry lane="132568466#0_1" pos="0.10"/>
        <detEntry lane="-356398014#0_0" pos="0.10"/>
        <detExit lane="-356397611#1_0" pos="-.1"/>
    </e3Detector>
    <e3Detector id="e3_3618663864_356397611#0" freq="90" file="e3output.xml">
        <detEntry lane="356398225#1_0" pos="0.10"/>
        <detEntry lane="131235005#3_0" pos="73.48"/>
        <detEntry lane="131235005#3_1" pos="73.48"/>
        <detEntry lane="-356397611#0_0" pos="76.50"/>
        <detExit lane="356397611#0_0" pos="-.1"/>
    </e3Detector>
    <e3Detector id="e3_2403123794_-356397612#1" freq="90" file="e3output.xml">
        <detEntry lane="356397612#1_0" pos="0.10"/>
        <detEntry lane="451653538_0" pos="2.21"/>
        <detEntry lane="288222422#0_0" pos="0.10"/>
        <detEntry lane="288222422#0_1" pos="0.10"/>
        <detEntry lane="-356398273#0_0" pos="0.10"/>
        <detExit lane="-356397612#1_0" pos="-.1"/>
    </e3Detector>
    <e3Detector id="e3_2403123794_356397612#0" freq="90" file="e3output.xml">
        <detEntry lane="356397819#1_0" pos="0.10"/>
        <detEntry lane="356396859_0" pos="0.10"/>
        <detEntry lane="-356397612#0_0" pos="0.10"/>
        <detExit lane="356397612#0_0" pos="-.1"/>
    </e3Detector>
    <e3Detector id="e3_3618663627_-356397729#1" freq="90" file="e3output.xml">
        <detEntry lane="356397729#1_0" pos="0.10"/>
        <detEntry lane="130775458#0_0" pos="0.10"/>
        <detEntry lane="130775458#0_1" pos="0.10"/>
        <detEntry lane="-356398072#0_0" pos="0.10"/>
        <detExit lane="-356397729#1_0" pos="-.1"/>
    </e3Detector>
    <e3Detector id="e3_3618663627_356397729#0" freq="90" file="e3output.xml">
        <detEntry lane="356398014#2_0" pos="66.76"/>
        <detEntry lane="563064821#1_0" pos="2.95"/>
        <detEntry lane="132568467#0_0" pos="37.32"/>
        <detEntry lane="132568467#0_1" pos="37.32"/>
        <detEntry lane="-356397729#0_0" pos="0.10"/>
        <detExit lane="356397729#0_0" pos="-.1"/>
    </e3Detector>
    <e3Detector id="e3_3618663465_-356397730#1" freq="90" file="e3output.xml">
        <detEntry lane="356396807_0" pos="0.10"/>
        <detExit lane="-356397730#1_0" pos="-.1"/>
    </e3Detector>
    <e3Detector id="e3_3618663465_356397730#0" freq="90" file="e3output.xml">
        <detEntry lane="356398072#2_0" pos="21.65"/>
        <detEntry lane="131876924#0_0" pos="0.10"/>
        <detEntry lane="131876924#0_1" pos="0.10"/>
        <detEntry lane="479026618#1_0" pos="1.19"/>