<?xml version="1.0" encoding="iso-8859-1"?>
<configuration>
	<input>
		<net-file value="MAS.net.xml"/>
		<route-files value="MAS.rou.xml"/>
		<additional-files value="e3.add.xml"/> 
	</input>
	<time>
		<begin value="0"/>
		<end value="5000"/>
	</time>
	<traci_server>
        <remote-port value="8813"/>
    </traci_server>
    <gui_only>
    	<start value="true"/>
	</gui_only>
</configuration>

